
---------- Begin Simulation Statistics ----------
sim_seconds                                  0.292941                       # Number of seconds simulated
sim_ticks                                292940651000                       # Number of ticks simulated
final_tick                               292940651000                       # Number of ticks from beginning of simulation (restored from checkpoints and never reset)
sim_freq                                 1000000000000                       # Frequency of simulated ticks
host_inst_rate                                 611012                       # Simulator instruction rate (inst/s)
host_op_rate                                  1000099                       # Simulator op (including micro ops) rate (op/s)
host_tick_rate                             1250615261                       # Simulator tick rate (ticks/s)
host_mem_usage                                 665008                       # Number of bytes of host memory used
host_seconds                                   234.24                       # Real time elapsed on the host
sim_insts                                   143121813                       # Number of instructions simulated
sim_ops                                     234260415                       # Number of ops (including micro ops) simulated
system.voltage_domain.voltage                       1                       # Voltage in Volts
system.clk_domain.clock                          1000                       # Clock period in ticks
system.mem_ctrls.pwrStateResidencyTicks::UNDEFINED 292940651000                       # Cumulative time (in ticks) in various power states
system.mem_ctrls.bytes_read::cpu.inst           22656                       # Number of bytes read from this memory
system.mem_ctrls.bytes_read::cpu.data         2488896                       # Number of bytes read from this memory
system.mem_ctrls.bytes_read::total            2511552                       # Number of bytes read from this memory
system.mem_ctrls.bytes_inst_read::cpu.inst        22656                       # Number of instructions bytes read from this memory
system.mem_ctrls.bytes_inst_read::total         22656                       # Number of instructions bytes read from this memory
system.mem_ctrls.bytes_written::writebacks      1437696                       # Number of bytes written to this memory
system.mem_ctrls.bytes_written::total         1437696                       # Number of bytes written to this memory
system.mem_ctrls.num_reads::cpu.inst              354                       # Number of read requests responded to by this memory
system.mem_ctrls.num_reads::cpu.data            38889                       # Number of read requests responded to by this memory
system.mem_ctrls.num_reads::total               39243                       # Number of read requests responded to by this memory
system.mem_ctrls.num_writes::writebacks         22464                       # Number of write requests responded to by this memory
system.mem_ctrls.num_writes::total              22464                       # Number of write requests responded to by this memory
system.mem_ctrls.bw_read::cpu.inst              77340                       # Total read bandwidth from this memory (bytes/s)
system.mem_ctrls.bw_read::cpu.data            8496247                       # Total read bandwidth from this memory (bytes/s)
system.mem_ctrls.bw_read::total               8573586                       # Total read bandwidth from this memory (bytes/s)
system.mem_ctrls.bw_inst_read::cpu.inst         77340                       # Instruction read bandwidth from this memory (bytes/s)
system.mem_ctrls.bw_inst_read::total            77340                       # Instruction read bandwidth from this memory (bytes/s)
system.mem_ctrls.bw_write::writebacks         4907806                       # Write bandwidth from this memory (bytes/s)
system.mem_ctrls.bw_write::total              4907806                       # Write bandwidth from this memory (bytes/s)
system.mem_ctrls.bw_total::writebacks         4907806                       # Total bandwidth to/from this memory (bytes/s)
system.mem_ctrls.bw_total::cpu.inst             77340                       # Total bandwidth to/from this memory (bytes/s)
system.mem_ctrls.bw_total::cpu.data           8496247                       # Total bandwidth to/from this memory (bytes/s)
system.mem_ctrls.bw_total::total             13481393                       # Total bandwidth to/from this memory (bytes/s)
system.pwrStateResidencyTicks::UNDEFINED 292940651000                       # Cumulative time (in ticks) in various power states
system.cpu_voltage_domain.voltage                   1                       # Voltage in Volts
system.cpu_clk_domain.clock                       500                       # Clock period in ticks
system.cpu.dtb.walker.pwrStateResidencyTicks::UNDEFINED 292940651000                       # Cumulative time (in ticks) in various power states
system.cpu.dtb.rdAccesses                    67629526                       # TLB accesses on read requests
system.cpu.dtb.wrAccesses                    18488677                       # TLB accesses on write requests
system.cpu.dtb.rdMisses                          1348                       # TLB misses on read requests
system.cpu.dtb.wrMisses                           301                       # TLB misses on write requests
system.cpu.apic_clk_domain.clock                 8000                       # Clock period in ticks
system.cpu.interrupts.pwrStateResidencyTicks::UNDEFINED 292940651000                       # Cumulative time (in ticks) in various power states
system.cpu.itb.walker.pwrStateResidencyTicks::UNDEFINED 292940651000                       # Cumulative time (in ticks) in various power states
system.cpu.itb.rdAccesses                           0                       # TLB accesses on read requests
system.cpu.itb.wrAccesses                   191503621                       # TLB accesses on write requests
system.cpu.itb.rdMisses                             0                       # TLB misses on read requests
system.cpu.itb.wrMisses                            37                       # TLB misses on write requests
system.cpu.workload.numSyscalls                     9                       # Number of system calls
system.cpu.pwrStateResidencyTicks::ON    292940651000                       # Cumulative time (in ticks) in various power states
system.cpu.numCycles                        585881302                       # number of cpu cycles simulated
system.cpu.numWorkItemsStarted                      0                       # number of work items this cpu started
system.cpu.numWorkItemsCompleted                    0                       # number of work items this cpu completed
system.cpu.committedInsts                   143121813                       # Number of instructions committed
system.cpu.committedOps                     234260415                       # Number of ops (including micro ops) committed
system.cpu.num_int_alu_accesses             232750430                       # Number of integer alu accesses
system.cpu.num_fp_alu_accesses                   1967                       # Number of float alu accesses
system.cpu.num_vec_alu_accesses                     0                       # Number of vector alu accesses
system.cpu.num_func_calls                     2835028                       # number of times a function call or return occured
system.cpu.num_conditional_control_insts     13480721                       # number of instructions that are conditional controls
system.cpu.num_int_insts                    232750430                       # number of integer instructions
system.cpu.num_fp_insts                          1967                       # number of float instructions
system.cpu.num_vec_insts                            0                       # number of vector instructions
system.cpu.num_int_register_reads           522885063                       # number of times the integer registers were read
system.cpu.num_int_register_writes          202716747                       # number of times the integer registers were written
system.cpu.num_fp_register_reads                 3779                       # number of times the floating registers were read
system.cpu.num_fp_register_writes                1492                       # number of times the floating registers were written
system.cpu.num_vec_register_reads                   0                       # number of times the vector registers were read
system.cpu.num_vec_register_writes                  0                       # number of times the vector registers were written
system.cpu.num_cc_register_reads             86823024                       # number of times the CC registers were read
system.cpu.num_cc_register_writes            80174074                       # number of times the CC registers were written
system.cpu.num_mem_refs                      86118197                       # number of memory refs
system.cpu.num_load_insts                    67629521                       # Number of load instructions
system.cpu.num_store_insts                   18488676                       # Number of store instructions
system.cpu.num_idle_cycles                          0                       # Number of idle cycles
system.cpu.num_busy_cycles                  585881302                       # Number of busy cycles
system.cpu.not_idle_fraction                        1                       # Percentage of non-idle cycles
system.cpu.idle_fraction                            0                       # Percentage of idle cycles
system.cpu.Branches                          17608147                       # Number of branches fetched
system.cpu.op_class::No_OpClass                473779      0.20%      0.20% # Class of executed instruction
system.cpu.op_class::IntAlu                 144872749     61.84%     62.04% # Class of executed instruction
system.cpu.op_class::IntMult                        4      0.00%     62.04% # Class of executed instruction
system.cpu.op_class::IntDiv                   2794726      1.19%     63.24% # Class of executed instruction
system.cpu.op_class::FloatAdd                      10      0.00%     63.24% # Class of executed instruction
system.cpu.op_class::FloatCmp                       0      0.00%     63.24% # Class of executed instruction
system.cpu.op_class::FloatCvt                       0      0.00%     63.24% # Class of executed instruction
system.cpu.op_class::FloatMult                      0      0.00%     63.24% # Class of executed instruction
system.cpu.op_class::FloatMultAcc                   0      0.00%     63.24% # Class of executed instruction
system.cpu.op_class::FloatDiv                       0      0.00%     63.24% # Class of executed instruction
system.cpu.op_class::FloatMisc                      0      0.00%     63.24% # Class of executed instruction
system.cpu.op_class::FloatSqrt                      0      0.00%     63.24% # Class of executed instruction
system.cpu.op_class::SimdAdd                      374      0.00%     63.24% # Class of executed instruction
system.cpu.op_class::SimdAddAcc                     0      0.00%     63.24% # Class of executed instruction
system.cpu.op_class::SimdAlu                       68      0.00%     63.24% # Class of executed instruction
system.cpu.op_class::SimdCmp                        0      0.00%     63.24% # Class of executed instruction
system.cpu.op_class::SimdCvt                      108      0.00%     63.24% # Class of executed instruction
system.cpu.op_class::SimdMisc                     214      0.00%     63.24% # Class of executed instruction
system.cpu.op_class::SimdMult                       0      0.00%     63.24% # Class of executed instruction
system.cpu.op_class::SimdMultAcc                    0      0.00%     63.24% # Class of executed instruction
system.cpu.op_class::SimdShift                    186      0.00%     63.24% # Class of executed instruction
system.cpu.op_class::SimdShiftAcc                   0      0.00%     63.24% # Class of executed instruction
system.cpu.op_class::SimdSqrt                       0      0.00%     63.24% # Class of executed instruction
system.cpu.op_class::SimdFloatAdd                   0      0.00%     63.24% # Class of executed instruction
system.cpu.op_class::SimdFloatAlu                   0      0.00%     63.24% # Class of executed instruction
system.cpu.op_class::SimdFloatCmp                   0      0.00%     63.24% # Class of executed instruction
system.cpu.op_class::SimdFloatCvt                   0      0.00%     63.24% # Class of executed instruction
system.cpu.op_class::SimdFloatDiv                   0      0.00%     63.24% # Class of executed instruction
system.cpu.op_class::SimdFloatMisc                  0      0.00%     63.24% # Class of executed instruction
system.cpu.op_class::SimdFloatMult                  0      0.00%     63.24% # Class of executed instruction
system.cpu.op_class::SimdFloatMultAcc               0      0.00%     63.24% # Class of executed instruction
system.cpu.op_class::SimdFloatSqrt                  0      0.00%     63.24% # Class of executed instruction
system.cpu.op_class::MemRead                 67629453     28.87%     92.11% # Class of executed instruction
system.cpu.op_class::MemWrite                18488249      7.89%    100.00% # Class of executed instruction
system.cpu.op_class::FloatMemRead                  68      0.00%    100.00% # Class of executed instruction
system.cpu.op_class::FloatMemWrite                427      0.00%    100.00% # Class of executed instruction
system.cpu.op_class::IprAccess                      0      0.00%    100.00% # Class of executed instruction
system.cpu.op_class::InstPrefetch                   0      0.00%    100.00% # Class of executed instruction
system.cpu.op_class::total                  234260415                       # Class of executed instruction
system.cpu.dcache.tags.pwrStateResidencyTicks::UNDEFINED 292940651000                       # Cumulative time (in ticks) in various power states
system.cpu.dcache.tags.tagsinuse           511.373101                       # Cycle average of tags in use
system.cpu.dcache.tags.total_refs            86118203                       # Total number of references to valid blocks.
system.cpu.dcache.tags.sampled_refs            178303                       # Sample count of references to valid blocks.
system.cpu.dcache.tags.avg_refs            482.987964                       # Average number of references to valid blocks.
system.cpu.dcache.tags.warmup_cycle            765000                       # Cycle when the warmup percentage was hit.
system.cpu.dcache.tags.occ_blocks::cpu.data   511.373101                       # Average occupied blocks per requestor
system.cpu.dcache.tags.occ_percent::cpu.data     0.998776                       # Average percentage of cache occupancy
system.cpu.dcache.tags.occ_percent::total     0.998776                       # Average percentage of cache occupancy
system.cpu.dcache.tags.occ_task_id_blocks::1024          512                       # Occupied blocks per task id
system.cpu.dcache.tags.age_task_id_blocks_1024::0           11                       # Occupied blocks per task id
system.cpu.dcache.tags.age_task_id_blocks_1024::1           16                       # Occupied blocks per task id
system.cpu.dcache.tags.age_task_id_blocks_1024::3          468                       # Occupied blocks per task id
system.cpu.dcache.tags.age_task_id_blocks_1024::4           17                       # Occupied blocks per task id
system.cpu.dcache.tags.occ_task_id_percent::1024            1                       # Percentage of cache occupancy per task id
system.cpu.dcache.tags.tag_accesses         172414709                       # Number of tag accesses
system.cpu.dcache.tags.data_accesses        172414709                       # Number of data accesses
system.cpu.dcache.pwrStateResidencyTicks::UNDEFINED 292940651000                       # Cumulative time (in ticks) in various power states
system.cpu.dcache.ReadReq_hits::cpu.data     67471167                       # number of ReadReq hits
system.cpu.dcache.ReadReq_hits::total        67471167                       # number of ReadReq hits
system.cpu.dcache.WriteReq_hits::cpu.data     18388808                       # number of WriteReq hits
system.cpu.dcache.WriteReq_hits::total       18388808                       # number of WriteReq hits
system.cpu.dcache.demand_hits::cpu.data      85859975                       # number of demand (read+write) hits
system.cpu.dcache.demand_hits::total         85859975                       # number of demand (read+write) hits
system.cpu.dcache.overall_hits::cpu.data     85859975                       # number of overall hits
system.cpu.dcache.overall_hits::total        85859975                       # number of overall hits
system.cpu.dcache.ReadReq_misses::cpu.data       158359                       # number of ReadReq misses
system.cpu.dcache.ReadReq_misses::total        158359                       # number of ReadReq misses
system.cpu.dcache.WriteReq_misses::cpu.data        99869                       # number of WriteReq misses
system.cpu.dcache.WriteReq_misses::total        99869                       # number of WriteReq misses
system.cpu.dcache.demand_misses::cpu.data       258228                       # number of demand (read+write) misses
system.cpu.dcache.demand_misses::total         258228                       # number of demand (read+write) misses
system.cpu.dcache.overall_misses::cpu.data       258228                       # number of overall misses
system.cpu.dcache.overall_misses::total        258228                       # number of overall misses
system.cpu.dcache.ReadReq_miss_latency::cpu.data  12432461000                       # number of ReadReq miss cycles
system.cpu.dcache.ReadReq_miss_latency::total  12432461000                       # number of ReadReq miss cycles
system.cpu.dcache.WriteReq_miss_latency::cpu.data   3081265000                       # number of WriteReq miss cycles
system.cpu.dcache.WriteReq_miss_latency::total   3081265000                       # number of WriteReq miss cycles
system.cpu.dcache.demand_miss_latency::cpu.data  15513726000                       # number of demand (read+write) miss cycles
system.cpu.dcache.demand_miss_latency::total  15513726000                       # number of demand (read+write) miss cycles
system.cpu.dcache.overall_miss_latency::cpu.data  15513726000                       # number of overall miss cycles
system.cpu.dcache.overall_miss_latency::total  15513726000                       # number of overall miss cycles
system.cpu.dcache.ReadReq_accesses::cpu.data     67629526                       # number of ReadReq accesses(hits+misses)
system.cpu.dcache.ReadReq_accesses::total     67629526                       # number of ReadReq accesses(hits+misses)
system.cpu.dcache.WriteReq_accesses::cpu.data     18488677                       # number of WriteReq accesses(hits+misses)
system.cpu.dcache.WriteReq_accesses::total     18488677                       # number of WriteReq accesses(hits+misses)
system.cpu.dcache.demand_accesses::cpu.data     86118203                       # number of demand (read+write) accesses
system.cpu.dcache.demand_accesses::total     86118203                       # number of demand (read+write) accesses
system.cpu.dcache.overall_accesses::cpu.data     86118203                       # number of overall (read+write) accesses
system.cpu.dcache.overall_accesses::total     86118203                       # number of overall (read+write) accesses
system.cpu.dcache.ReadReq_miss_rate::cpu.data     0.002342                       # miss rate for ReadReq accesses
system.cpu.dcache.ReadReq_miss_rate::total     0.002342                       # miss rate for ReadReq accesses
system.cpu.dcache.WriteReq_miss_rate::cpu.data     0.005402                       # miss rate for WriteReq accesses
system.cpu.dcache.WriteReq_miss_rate::total     0.005402                       # miss rate for WriteReq accesses
system.cpu.dcache.demand_miss_rate::cpu.data     0.002999                       # miss rate for demand accesses
system.cpu.dcache.demand_miss_rate::total     0.002999                       # miss rate for demand accesses
system.cpu.dcache.overall_miss_rate::cpu.data     0.002999                       # miss rate for overall accesses
system.cpu.dcache.overall_miss_rate::total     0.002999                       # miss rate for overall accesses
system.cpu.dcache.ReadReq_avg_miss_latency::cpu.data 78508.079743                       # average ReadReq miss latency
system.cpu.dcache.ReadReq_avg_miss_latency::total 78508.079743                       # average ReadReq miss latency
system.cpu.dcache.WriteReq_avg_miss_latency::cpu.data 30853.067518                       # average WriteReq miss latency
system.cpu.dcache.WriteReq_avg_miss_latency::total 30853.067518                       # average WriteReq miss latency
system.cpu.dcache.demand_avg_miss_latency::cpu.data 60077.629072                       # average overall miss latency
system.cpu.dcache.demand_avg_miss_latency::total 60077.629072                       # average overall miss latency
system.cpu.dcache.overall_avg_miss_latency::cpu.data 60077.629072                       # average overall miss latency
system.cpu.dcache.overall_avg_miss_latency::total 60077.629072                       # average overall miss latency
system.cpu.dcache.blocked_cycles::no_mshrs            0                       # number of cycles access was blocked
system.cpu.dcache.blocked_cycles::no_targets            0                       # number of cycles access was blocked
system.cpu.dcache.blocked::no_mshrs                 0                       # number of cycles access was blocked
system.cpu.dcache.blocked::no_targets               0                       # number of cycles access was blocked
system.cpu.dcache.avg_blocked_cycles::no_mshrs          nan                       # average number of cycles each access was blocked
system.cpu.dcache.avg_blocked_cycles::no_targets          nan                       # average number of cycles each access was blocked
system.cpu.dcache.writebacks::writebacks       166396                       # number of writebacks
system.cpu.dcache.writebacks::total            166396                       # number of writebacks
system.cpu.dcache.ReadReq_mshr_misses::cpu.data       158359                       # number of ReadReq MSHR misses
system.cpu.dcache.ReadReq_mshr_misses::total       158359                       # number of ReadReq MSHR misses
system.cpu.dcache.WriteReq_mshr_misses::cpu.data        99869                       # number of WriteReq MSHR misses
system.cpu.dcache.WriteReq_mshr_misses::total        99869                       # number of WriteReq MSHR misses
system.cpu.dcache.demand_mshr_misses::cpu.data       258228                       # number of demand (read+write) MSHR misses
system.cpu.dcache.demand_mshr_misses::total       258228                       # number of demand (read+write) MSHR misses
system.cpu.dcache.overall_mshr_misses::cpu.data       258228                       # number of overall MSHR misses
system.cpu.dcache.overall_mshr_misses::total       258228                       # number of overall MSHR misses
system.cpu.dcache.ReadReq_mshr_miss_latency::cpu.data  12274102000                       # number of ReadReq MSHR miss cycles
system.cpu.dcache.ReadReq_mshr_miss_latency::total  12274102000                       # number of ReadReq MSHR miss cycles
system.cpu.dcache.WriteReq_mshr_miss_latency::cpu.data   2981396000                       # number of WriteReq MSHR miss cycles
system.cpu.dcache.WriteReq_mshr_miss_latency::total   2981396000                       # number of WriteReq MSHR miss cycles
system.cpu.dcache.demand_mshr_miss_latency::cpu.data  15255498000                       # number of demand (read+write) MSHR miss cycles
system.cpu.dcache.demand_mshr_miss_latency::total  15255498000                       # number of demand (read+write) MSHR miss cycles
system.cpu.dcache.overall_mshr_miss_latency::cpu.data  15255498000                       # number of overall MSHR miss cycles
system.cpu.dcache.overall_mshr_miss_latency::total  15255498000                       # number of overall MSHR miss cycles
system.cpu.dcache.ReadReq_mshr_miss_rate::cpu.data     0.002342                       # mshr miss rate for ReadReq accesses
system.cpu.dcache.ReadReq_mshr_miss_rate::total     0.002342                       # mshr miss rate for ReadReq accesses
system.cpu.dcache.WriteReq_mshr_miss_rate::cpu.data     0.005402                       # mshr miss rate for WriteReq accesses
system.cpu.dcache.WriteReq_mshr_miss_rate::total     0.005402                       # mshr miss rate for WriteReq accesses
system.cpu.dcache.demand_mshr_miss_rate::cpu.data     0.002999                       # mshr miss rate for demand accesses
system.cpu.dcache.demand_mshr_miss_rate::total     0.002999                       # mshr miss rate for demand accesses
system.cpu.dcache.overall_mshr_miss_rate::cpu.data     0.002999                       # mshr miss rate for overall accesses
system.cpu.dcache.overall_mshr_miss_rate::total     0.002999                       # mshr miss rate for overall accesses
system.cpu.dcache.ReadReq_avg_mshr_miss_latency::cpu.data 77508.079743                       # average ReadReq mshr miss latency
system.cpu.dcache.ReadReq_avg_mshr_miss_latency::total 77508.079743                       # average ReadReq mshr miss latency
system.cpu.dcache.WriteReq_avg_mshr_miss_latency::cpu.data 29853.067518                       # average WriteReq mshr miss latency
system.cpu.dcache.WriteReq_avg_mshr_miss_latency::total 29853.067518                       # average WriteReq mshr miss latency
system.cpu.dcache.demand_avg_mshr_miss_latency::cpu.data 59077.629072                       # average overall mshr miss latency
system.cpu.dcache.demand_avg_mshr_miss_latency::total 59077.629072                       # average overall mshr miss latency
system.cpu.dcache.overall_avg_mshr_miss_latency::cpu.data 59077.629072                       # average overall mshr miss latency
system.cpu.dcache.overall_avg_mshr_miss_latency::total 59077.629072                       # average overall mshr miss latency
system.cpu.dcache.replacements                 177791                       # number of replacements
system.cpu.dtb_walker_cache.tags.pwrStateResidencyTicks::UNDEFINED 292940651000                       # Cumulative time (in ticks) in various power states
system.cpu.dtb_walker_cache.tags.tagsinuse            0                       # Cycle average of tags in use
system.cpu.dtb_walker_cache.tags.total_refs            0                       # Total number of references to valid blocks.
system.cpu.dtb_walker_cache.tags.sampled_refs            0                       # Sample count of references to valid blocks.
system.cpu.dtb_walker_cache.tags.avg_refs          nan                       # Average number of references to valid blocks.
system.cpu.dtb_walker_cache.tags.warmup_cycle            0                       # Cycle when the warmup percentage was hit.
system.cpu.dtb_walker_cache.tags.tag_accesses            0                       # Number of tag accesses
system.cpu.dtb_walker_cache.tags.data_accesses            0                       # Number of data accesses
system.cpu.dtb_walker_cache.pwrStateResidencyTicks::UNDEFINED 292940651000                       # Cumulative time (in ticks) in various power states
system.cpu.dtb_walker_cache.blocked_cycles::no_mshrs            0                       # number of cycles access was blocked
system.cpu.dtb_walker_cache.blocked_cycles::no_targets            0                       # number of cycles access was blocked
system.cpu.dtb_walker_cache.blocked::no_mshrs            0                       # number of cycles access was blocked
system.cpu.dtb_walker_cache.blocked::no_targets            0                       # number of cycles access was blocked
system.cpu.dtb_walker_cache.avg_blocked_cycles::no_mshrs          nan                       # average number of cycles each access was blocked
system.cpu.dtb_walker_cache.avg_blocked_cycles::no_targets          nan                       # average number of cycles each access was blocked
system.cpu.dtb_walker_cache.replacements            0                       # number of replacements
system.cpu.icache.tags.pwrStateResidencyTicks::UNDEFINED 292940651000                       # Cumulative time (in ticks) in various power states
system.cpu.icache.tags.tagsinuse           280.444964                       # Cycle average of tags in use
system.cpu.icache.tags.total_refs           191503621                       # Total number of references to valid blocks.
system.cpu.icache.tags.sampled_refs               354                       # Sample count of references to valid blocks.
system.cpu.icache.tags.avg_refs          540970.680791                       # Average number of references to valid blocks.
system.cpu.icache.tags.warmup_cycle            445000                       # Cycle when the warmup percentage was hit.
system.cpu.icache.tags.occ_blocks::cpu.inst   280.444964                       # Average occupied blocks per requestor
system.cpu.icache.tags.occ_percent::cpu.inst     0.547744                       # Average percentage of cache occupancy
system.cpu.icache.tags.occ_percent::total     0.547744                       # Average percentage of cache occupancy
system.cpu.icache.tags.occ_task_id_blocks::1024          310                       # Occupied blocks per task id
system.cpu.icache.tags.age_task_id_blocks_1024::0           14                       # Occupied blocks per task id
system.cpu.icache.tags.age_task_id_blocks_1024::1           24                       # Occupied blocks per task id
system.cpu.icache.tags.age_task_id_blocks_1024::4          272                       # Occupied blocks per task id
system.cpu.icache.tags.occ_task_id_percent::1024     0.605469                       # Percentage of cache occupancy per task id
system.cpu.icache.tags.tag_accesses         383007596                       # Number of tag accesses
system.cpu.icache.tags.data_accesses        383007596                       # Number of data accesses
system.cpu.icache.pwrStateResidencyTicks::UNDEFINED 292940651000                       # Cumulative time (in ticks) in various power states
system.cpu.icache.ReadReq_hits::cpu.inst    191503267                       # number of ReadReq hits
system.cpu.icache.ReadReq_hits::total       191503267                       # number of ReadReq hits
system.cpu.icache.demand_hits::cpu.inst     191503267                       # number of demand (read+write) hits
system.cpu.icache.demand_hits::total        191503267                       # number of demand (read+write) hits
system.cpu.icache.overall_hits::cpu.inst    191503267                       # number of overall hits
system.cpu.icache.overall_hits::total       191503267                       # number of overall hits
system.cpu.icache.ReadReq_misses::cpu.inst          354                       # number of ReadReq misses
system.cpu.icache.ReadReq_misses::total           354                       # number of ReadReq misses
system.cpu.icache.demand_misses::cpu.inst          354                       # number of demand (read+write) misses
system.cpu.icache.demand_misses::total            354                       # number of demand (read+write) misses
system.cpu.icache.overall_misses::cpu.inst          354                       # number of overall misses
system.cpu.icache.overall_misses::total           354                       # number of overall misses
system.cpu.icache.ReadReq_miss_latency::cpu.inst     63688000                       # number of ReadReq miss cycles
system.cpu.icache.ReadReq_miss_latency::total     63688000                       # number of ReadReq miss cycles
system.cpu.icache.demand_miss_latency::cpu.inst     63688000                       # number of demand (read+write) miss cycles
system.cpu.icache.demand_miss_latency::total     63688000                       # number of demand (read+write) miss cycles
system.cpu.icache.overall_miss_latency::cpu.inst     63688000                       # number of overall miss cycles
system.cpu.icache.overall_miss_latency::total     63688000                       # number of overall miss cycles
system.cpu.icache.ReadReq_accesses::cpu.inst    191503621                       # number of ReadReq accesses(hits+misses)
system.cpu.icache.ReadReq_accesses::total    191503621                       # number of ReadReq accesses(hits+misses)
system.cpu.icache.demand_accesses::cpu.inst    191503621                       # number of demand (read+write) accesses
system.cpu.icache.demand_accesses::total    191503621                       # number of demand (read+write) accesses
system.cpu.icache.overall_accesses::cpu.inst    191503621                       # number of overall (read+write) accesses
system.cpu.icache.overall_accesses::total    191503621                       # number of overall (read+write) accesses
system.cpu.icache.ReadReq_miss_rate::cpu.inst     0.000002                       # miss rate for ReadReq accesses
system.cpu.icache.ReadReq_miss_rate::total     0.000002                       # miss rate for ReadReq accesses
system.cpu.icache.demand_miss_rate::cpu.inst     0.000002                       # miss rate for demand accesses
system.cpu.icache.demand_miss_rate::total     0.000002                       # miss rate for demand accesses
system.cpu.icache.overall_miss_rate::cpu.inst     0.000002                       # miss rate for overall accesses
system.cpu.icache.overall_miss_rate::total     0.000002                       # miss rate for overall accesses
system.cpu.icache.ReadReq_avg_miss_latency::cpu.inst 179909.604520                       # average ReadReq miss latency
system.cpu.icache.ReadReq_avg_miss_latency::total 179909.604520                       # average ReadReq miss latency
system.cpu.icache.demand_avg_miss_latency::cpu.inst 179909.604520                       # average overall miss latency
system.cpu.icache.demand_avg_miss_latency::total 179909.604520                       # average overall miss latency
system.cpu.icache.overall_avg_miss_latency::cpu.inst 179909.604520                       # average overall miss latency
system.cpu.icache.overall_avg_miss_latency::total 179909.604520                       # average overall miss latency
system.cpu.icache.blocked_cycles::no_mshrs            0                       # number of cycles access was blocked
system.cpu.icache.blocked_cycles::no_targets            0                       # number of cycles access was blocked
system.cpu.icache.blocked::no_mshrs                 0                       # number of cycles access was blocked
system.cpu.icache.blocked::no_targets               0                       # number of cycles access was blocked
system.cpu.icache.avg_blocked_cycles::no_mshrs          nan                       # average number of cycles each access was blocked
system.cpu.icache.avg_blocked_cycles::no_targets          nan                       # average number of cycles each access was blocked
system.cpu.icache.writebacks::writebacks           44                       # number of writebacks
system.cpu.icache.writebacks::total                44                       # number of writebacks
system.cpu.icache.ReadReq_mshr_misses::cpu.inst          354                       # number of ReadReq MSHR misses
system.cpu.icache.ReadReq_mshr_misses::total          354                       # number of ReadReq MSHR misses
system.cpu.icache.demand_mshr_misses::cpu.inst          354                       # number of demand (read+write) MSHR misses
system.cpu.icache.demand_mshr_misses::total          354                       # number of demand (read+write) MSHR misses
system.cpu.icache.overall_mshr_misses::cpu.inst          354                       # number of overall MSHR misses
system.cpu.icache.overall_mshr_misses::total          354                       # number of overall MSHR misses
system.cpu.icache.ReadReq_mshr_miss_latency::cpu.inst     63334000                       # number of ReadReq MSHR miss cycles
system.cpu.icache.ReadReq_mshr_miss_latency::total     63334000                       # number of ReadReq MSHR miss cycles
system.cpu.icache.demand_mshr_miss_latency::cpu.inst     63334000                       # number of demand (read+write) MSHR miss cycles
system.cpu.icache.demand_mshr_miss_latency::total     63334000                       # number of demand (read+write) MSHR miss cycles
system.cpu.icache.overall_mshr_miss_latency::cpu.inst     63334000                       # number of overall MSHR miss cycles
system.cpu.icache.overall_mshr_miss_latency::total     63334000                       # number of overall MSHR miss cycles
system.cpu.icache.ReadReq_mshr_miss_rate::cpu.inst     0.000002                       # mshr miss rate for ReadReq accesses
system.cpu.icache.ReadReq_mshr_miss_rate::total     0.000002                       # mshr miss rate for ReadReq accesses
system.cpu.icache.demand_mshr_miss_rate::cpu.inst     0.000002                       # mshr miss rate for demand accesses
system.cpu.icache.demand_mshr_miss_rate::total     0.000002                       # mshr miss rate for demand accesses
system.cpu.icache.overall_mshr_miss_rate::cpu.inst     0.000002                       # mshr miss rate for overall accesses
system.cpu.icache.overall_mshr_miss_rate::total     0.000002                       # mshr miss rate for overall accesses
system.cpu.icache.ReadReq_avg_mshr_miss_latency::cpu.inst 178909.604520                       # average ReadReq mshr miss latency
system.cpu.icache.ReadReq_avg_mshr_miss_latency::total 178909.604520                       # average ReadReq mshr miss latency
system.cpu.icache.demand_avg_mshr_miss_latency::cpu.inst 178909.604520                       # average overall mshr miss latency
system.cpu.icache.demand_avg_mshr_miss_latency::total 178909.604520                       # average overall mshr miss latency
system.cpu.icache.overall_avg_mshr_miss_latency::cpu.inst 178909.604520                       # average overall mshr miss latency
system.cpu.icache.overall_avg_mshr_miss_latency::total 178909.604520                       # average overall mshr miss latency
system.cpu.icache.replacements                     44                       # number of replacements
system.cpu.itb_walker_cache.tags.pwrStateResidencyTicks::UNDEFINED 292940651000                       # Cumulative time (in ticks) in various power states
system.cpu.itb_walker_cache.tags.tagsinuse            0                       # Cycle average of tags in use
system.cpu.itb_walker_cache.tags.total_refs            0                       # Total number of references to valid blocks.
system.cpu.itb_walker_cache.tags.sampled_refs            0                       # Sample count of references to valid blocks.
system.cpu.itb_walker_cache.tags.avg_refs          nan                       # Average number of references to valid blocks.
system.cpu.itb_walker_cache.tags.warmup_cycle            0                       # Cycle when the warmup percentage was hit.
system.cpu.itb_walker_cache.tags.tag_accesses            0                       # Number of tag accesses
system.cpu.itb_walker_cache.tags.data_accesses            0                       # Number of data accesses
system.cpu.itb_walker_cache.pwrStateResidencyTicks::UNDEFINED 292940651000                       # Cumulative time (in ticks) in various power states
system.cpu.itb_walker_cache.blocked_cycles::no_mshrs            0                       # number of cycles access was blocked
system.cpu.itb_walker_cache.blocked_cycles::no_targets            0                       # number of cycles access was blocked
system.cpu.itb_walker_cache.blocked::no_mshrs            0                       # number of cycles access was blocked
system.cpu.itb_walker_cache.blocked::no_targets            0                       # number of cycles access was blocked
system.cpu.itb_walker_cache.avg_blocked_cycles::no_mshrs          nan                       # average number of cycles each access was blocked
system.cpu.itb_walker_cache.avg_blocked_cycles::no_targets          nan                       # average number of cycles each access was blocked
system.cpu.itb_walker_cache.replacements            0                       # number of replacements
system.l2.tags.pwrStateResidencyTicks::UNDEFINED 292940651000                       # Cumulative time (in ticks) in various power states
system.l2.tags.tagsinuse                  2039.211750                       # Cycle average of tags in use
system.l2.tags.total_refs                      436417                       # Total number of references to valid blocks.
system.l2.tags.sampled_refs                    130539                       # Sample count of references to valid blocks.
system.l2.tags.avg_refs                      3.343192                       # Average number of references to valid blocks.
system.l2.tags.warmup_cycle                    434500                       # Cycle when the warmup percentage was hit.
system.l2.tags.occ_blocks::writebacks        1.147685                       # Average occupied blocks per requestor
system.l2.tags.occ_blocks::cpu.inst          3.362730                       # Average occupied blocks per requestor
system.l2.tags.occ_blocks::cpu.data       2034.701336                       # Average occupied blocks per requestor
system.l2.tags.occ_percent::writebacks       0.000560                       # Average percentage of cache occupancy
system.l2.tags.occ_percent::cpu.inst         0.001642                       # Average percentage of cache occupancy
system.l2.tags.occ_percent::cpu.data         0.993507                       # Average percentage of cache occupancy
system.l2.tags.occ_percent::total            0.995709                       # Average percentage of cache occupancy
system.l2.tags.occ_task_id_blocks::1024          2048                       # Occupied blocks per task id
system.l2.tags.age_task_id_blocks_1024::0           29                       # Occupied blocks per task id
system.l2.tags.age_task_id_blocks_1024::1           45                       # Occupied blocks per task id
system.l2.tags.age_task_id_blocks_1024::3          723                       # Occupied blocks per task id
system.l2.tags.age_task_id_blocks_1024::4         1251                       # Occupied blocks per task id
system.l2.tags.occ_task_id_percent::1024            1                       # Percentage of cache occupancy per task id
system.l2.tags.tag_accesses                   3621875                       # Number of tag accesses
system.l2.tags.data_accesses                  3621875                       # Number of data accesses
system.l2.pwrStateResidencyTicks::UNDEFINED 292940651000                       # Cumulative time (in ticks) in various power states
system.l2.WritebackDirty_hits::writebacks       166396                       # number of WritebackDirty hits
system.l2.WritebackDirty_hits::total           166396                       # number of WritebackDirty hits
system.l2.WritebackClean_hits::writebacks           44                       # number of WritebackClean hits
system.l2.WritebackClean_hits::total               44                       # number of WritebackClean hits
system.l2.UpgradeReq_hits::cpu.data             79925                       # number of UpgradeReq hits
system.l2.UpgradeReq_hits::total                79925                       # number of UpgradeReq hits
system.l2.ReadExReq_hits::cpu.data                860                       # number of ReadExReq hits
system.l2.ReadExReq_hits::total                   860                       # number of ReadExReq hits
system.l2.ReadSharedReq_hits::cpu.data          47300                       # number of ReadSharedReq hits
system.l2.ReadSharedReq_hits::total             47300                       # number of ReadSharedReq hits
system.l2.demand_hits::cpu.data                 48160                       # number of demand (read+write) hits
system.l2.demand_hits::total                    48160                       # number of demand (read+write) hits
system.l2.overall_hits::cpu.data                48160                       # number of overall hits
system.l2.overall_hits::total                   48160                       # number of overall hits
system.l2.ReadExReq_misses::cpu.data            19084                       # number of ReadExReq misses
system.l2.ReadExReq_misses::total               19084                       # number of ReadExReq misses
system.l2.ReadCleanReq_misses::cpu.inst           354                       # number of ReadCleanReq misses
system.l2.ReadCleanReq_misses::total              354                       # number of ReadCleanReq misses
system.l2.ReadSharedReq_misses::cpu.data       111059                       # number of ReadSharedReq misses
system.l2.ReadSharedReq_misses::total          111059                       # number of ReadSharedReq misses
system.l2.demand_misses::cpu.inst                 354                       # number of demand (read+write) misses
system.l2.demand_misses::cpu.data              130143                       # number of demand (read+write) misses
system.l2.demand_misses::total                 130497                       # number of demand (read+write) misses
system.l2.overall_misses::cpu.inst                354                       # number of overall misses
system.l2.overall_misses::cpu.data             130143                       # number of overall misses
system.l2.overall_misses::total                130497                       # number of overall misses
system.l2.ReadExReq_miss_latency::cpu.data   1983349500                       # number of ReadExReq miss cycles
system.l2.ReadExReq_miss_latency::total    1983349500                       # number of ReadExReq miss cycles
system.l2.ReadCleanReq_miss_latency::cpu.inst     62799000                       # number of ReadCleanReq miss cycles
system.l2.ReadCleanReq_miss_latency::total     62799000                       # number of ReadCleanReq miss cycles
system.l2.ReadSharedReq_miss_latency::cpu.data  11539913500                       # number of ReadSharedReq miss cycles
system.l2.ReadSharedReq_miss_latency::total  11539913500                       # number of ReadSharedReq miss cycles
system.l2.demand_miss_latency::cpu.inst      62799000                       # number of demand (read+write) miss cycles
system.l2.demand_miss_latency::cpu.data   13523263000                       # number of demand (read+write) miss cycles
system.l2.demand_miss_latency::total      13586062000                       # number of demand (read+write) miss cycles
system.l2.overall_miss_latency::cpu.inst     62799000                       # number of overall miss cycles
system.l2.overall_miss_latency::cpu.data  13523263000                       # number of overall miss cycles
system.l2.overall_miss_latency::total     13586062000                       # number of overall miss cycles
system.l2.WritebackDirty_accesses::writebacks       166396                       # number of WritebackDirty accesses(hits+misses)
system.l2.WritebackDirty_accesses::total       166396                       # number of WritebackDirty accesses(hits+misses)
system.l2.WritebackClean_accesses::writebacks           44                       # number of WritebackClean accesses(hits+misses)
system.l2.WritebackClean_accesses::total           44                       # number of WritebackClean accesses(hits+misses)
system.l2.UpgradeReq_accesses::cpu.data         79925                       # number of UpgradeReq accesses(hits+misses)
system.l2.UpgradeReq_accesses::total            79925                       # number of UpgradeReq accesses(hits+misses)
system.l2.ReadExReq_accesses::cpu.data          19944                       # number of ReadExReq accesses(hits+misses)
system.l2.ReadExReq_accesses::total             19944                       # number of ReadExReq accesses(hits+misses)
system.l2.ReadCleanReq_accesses::cpu.inst          354                       # number of ReadCleanReq accesses(hits+misses)
system.l2.ReadCleanReq_accesses::total            354                       # number of ReadCleanReq accesses(hits+misses)
system.l2.ReadSharedReq_accesses::cpu.data       158359                       # number of ReadSharedReq accesses(hits+misses)
system.l2.ReadSharedReq_accesses::total        158359                       # number of ReadSharedReq accesses(hits+misses)
system.l2.demand_accesses::cpu.inst               354                       # number of demand (read+write) accesses
system.l2.demand_accesses::cpu.data            178303                       # number of demand (read+write) accesses
system.l2.demand_accesses::total               178657                       # number of demand (read+write) accesses
system.l2.overall_accesses::cpu.inst              354                       # number of overall (read+write) accesses
system.l2.overall_accesses::cpu.data           178303                       # number of overall (read+write) accesses
system.l2.overall_accesses::total              178657                       # number of overall (read+write) accesses
system.l2.ReadExReq_miss_rate::cpu.data      0.956879                       # miss rate for ReadExReq accesses
system.l2.ReadExReq_miss_rate::total         0.956879                       # miss rate for ReadExReq accesses
system.l2.ReadCleanReq_miss_rate::cpu.inst            1                       # miss rate for ReadCleanReq accesses
system.l2.ReadCleanReq_miss_rate::total             1                       # miss rate for ReadCleanReq accesses
system.l2.ReadSharedReq_miss_rate::cpu.data     0.701312                       # miss rate for ReadSharedReq accesses
system.l2.ReadSharedReq_miss_rate::total     0.701312                       # miss rate for ReadSharedReq accesses
system.l2.demand_miss_rate::cpu.inst                1                       # miss rate for demand accesses
system.l2.demand_miss_rate::cpu.data         0.729898                       # miss rate for demand accesses
system.l2.demand_miss_rate::total            0.730433                       # miss rate for demand accesses
system.l2.overall_miss_rate::cpu.inst               1                       # miss rate for overall accesses
system.l2.overall_miss_rate::cpu.data        0.729898                       # miss rate for overall accesses
system.l2.overall_miss_rate::total           0.730433                       # miss rate for overall accesses
system.l2.ReadExReq_avg_miss_latency::cpu.data 103927.347516                       # average ReadExReq miss latency
system.l2.ReadExReq_avg_miss_latency::total 103927.347516                       # average ReadExReq miss latency
system.l2.ReadCleanReq_avg_miss_latency::cpu.inst 177398.305085                       # average ReadCleanReq miss latency
system.l2.ReadCleanReq_avg_miss_latency::total 177398.305085                       # average ReadCleanReq miss latency
system.l2.ReadSharedReq_avg_miss_latency::cpu.data 103907.954331                       # average ReadSharedReq miss latency
system.l2.ReadSharedReq_avg_miss_latency::total 103907.954331                       # average ReadSharedReq miss latency
system.l2.demand_avg_miss_latency::cpu.inst 177398.305085                       # average overall miss latency
system.l2.demand_avg_miss_latency::cpu.data 103910.798122                       # average overall miss latency
system.l2.demand_avg_miss_latency::total 104110.148126                       # average overall miss latency
system.l2.overall_avg_miss_latency::cpu.inst 177398.305085                       # average overall miss latency
system.l2.overall_avg_miss_latency::cpu.data 103910.798122                       # average overall miss latency
system.l2.overall_avg_miss_latency::total 104110.148126                       # average overall miss latency
system.l2.blocked_cycles::no_mshrs                  0                       # number of cycles access was blocked
system.l2.blocked_cycles::no_targets                0                       # number of cycles access was blocked
system.l2.blocked::no_mshrs                         0                       # number of cycles access was blocked
system.l2.blocked::no_targets                       0                       # number of cycles access was blocked
system.l2.avg_blocked_cycles::no_mshrs            nan                       # average number of cycles each access was blocked
system.l2.avg_blocked_cycles::no_targets          nan                       # average number of cycles each access was blocked
system.l2.writebacks::writebacks               124808                       # number of writebacks
system.l2.writebacks::total                    124808                       # number of writebacks
system.l2.ReadExReq_mshr_misses::cpu.data        19084                       # number of ReadExReq MSHR misses
system.l2.ReadExReq_mshr_misses::total          19084                       # number of ReadExReq MSHR misses
system.l2.ReadCleanReq_mshr_misses::cpu.inst          354                       # number of ReadCleanReq MSHR misses
system.l2.ReadCleanReq_mshr_misses::total          354                       # number of ReadCleanReq MSHR misses
system.l2.ReadSharedReq_mshr_misses::cpu.data       111059                       # number of ReadSharedReq MSHR misses
system.l2.ReadSharedReq_mshr_misses::total       111059                       # number of ReadSharedReq MSHR misses
system.l2.demand_mshr_misses::cpu.inst            354                       # number of demand (read+write) MSHR misses
system.l2.demand_mshr_misses::cpu.data         130143                       # number of demand (read+write) MSHR misses
system.l2.demand_mshr_misses::total            130497                       # number of demand (read+write) MSHR misses
system.l2.overall_mshr_misses::cpu.inst           354                       # number of overall MSHR misses
system.l2.overall_mshr_misses::cpu.data        130143                       # number of overall MSHR misses
system.l2.overall_mshr_misses::total           130497                       # number of overall MSHR misses
system.l2.ReadExReq_mshr_miss_latency::cpu.data   1792509500                       # number of ReadExReq MSHR miss cycles
system.l2.ReadExReq_mshr_miss_latency::total   1792509500                       # number of ReadExReq MSHR miss cycles
system.l2.ReadCleanReq_mshr_miss_latency::cpu.inst     59259000                       # number of ReadCleanReq MSHR miss cycles
system.l2.ReadCleanReq_mshr_miss_latency::total     59259000                       # number of ReadCleanReq MSHR miss cycles
system.l2.ReadSharedReq_mshr_miss_latency::cpu.data  10429323500                       # number of ReadSharedReq MSHR miss cycles
system.l2.ReadSharedReq_mshr_miss_latency::total  10429323500                       # number of ReadSharedReq MSHR miss cycles
system.l2.demand_mshr_miss_latency::cpu.inst     59259000                       # number of demand (read+write) MSHR miss cycles
system.l2.demand_mshr_miss_latency::cpu.data  12221833000                       # number of demand (read+write) MSHR miss cycles
system.l2.demand_mshr_miss_latency::total  12281092000                       # number of demand (read+write) MSHR miss cycles
system.l2.overall_mshr_miss_latency::cpu.inst     59259000                       # number of overall MSHR miss cycles
system.l2.overall_mshr_miss_latency::cpu.data  12221833000                       # number of overall MSHR miss cycles
system.l2.overall_mshr_miss_latency::total  12281092000                       # number of overall MSHR miss cycles
system.l2.ReadExReq_mshr_miss_rate::cpu.data     0.956879                       # mshr miss rate for ReadExReq accesses
system.l2.ReadExReq_mshr_miss_rate::total     0.956879                       # mshr miss rate for ReadExReq accesses
system.l2.ReadCleanReq_mshr_miss_rate::cpu.inst            1                       # mshr miss rate for ReadCleanReq accesses
system.l2.ReadCleanReq_mshr_miss_rate::total            1                       # mshr miss rate for ReadCleanReq accesses
system.l2.ReadSharedReq_mshr_miss_rate::cpu.data     0.701312                       # mshr miss rate for ReadSharedReq accesses
system.l2.ReadSharedReq_mshr_miss_rate::total     0.701312                       # mshr miss rate for ReadSharedReq accesses
system.l2.demand_mshr_miss_rate::cpu.inst            1                       # mshr miss rate for demand accesses
system.l2.demand_mshr_miss_rate::cpu.data     0.729898                       # mshr miss rate for demand accesses
system.l2.demand_mshr_miss_rate::total       0.730433                       # mshr miss rate for demand accesses
system.l2.overall_mshr_miss_rate::cpu.inst            1                       # mshr miss rate for overall accesses
system.l2.overall_mshr_miss_rate::cpu.data     0.729898                       # mshr miss rate for overall accesses
system.l2.overall_mshr_miss_rate::total      0.730433                       # mshr miss rate for overall accesses
system.l2.ReadExReq_avg_mshr_miss_latency::cpu.data 93927.347516                       # average ReadExReq mshr miss latency
system.l2.ReadExReq_avg_mshr_miss_latency::total 93927.347516                       # average ReadExReq mshr miss latency
system.l2.ReadCleanReq_avg_mshr_miss_latency::cpu.inst 167398.305085                       # average ReadCleanReq mshr miss latency
system.l2.ReadCleanReq_avg_mshr_miss_latency::total 167398.305085                       # average ReadCleanReq mshr miss latency
system.l2.ReadSharedReq_avg_mshr_miss_latency::cpu.data 93907.954331                       # average ReadSharedReq mshr miss latency
system.l2.ReadSharedReq_avg_mshr_miss_latency::total 93907.954331                       # average ReadSharedReq mshr miss latency
system.l2.demand_avg_mshr_miss_latency::cpu.inst 167398.305085                       # average overall mshr miss latency
system.l2.demand_avg_mshr_miss_latency::cpu.data 93910.798122                       # average overall mshr miss latency
system.l2.demand_avg_mshr_miss_latency::total 94110.148126                       # average overall mshr miss latency
system.l2.overall_avg_mshr_miss_latency::cpu.inst 167398.305085                       # average overall mshr miss latency
system.l2.overall_avg_mshr_miss_latency::cpu.data 93910.798122                       # average overall mshr miss latency
system.l2.overall_avg_mshr_miss_latency::total 94110.148126                       # average overall mshr miss latency
system.l2.replacements                         128491                       # number of replacements
system.l3.tags.pwrStateResidencyTicks::UNDEFINED 292940651000                       # Cumulative time (in ticks) in various power states
system.l3.tags.tagsinuse                 15542.471799                       # Cycle average of tags in use
system.l3.tags.total_refs                      258674                       # Total number of references to valid blocks.
system.l3.tags.sampled_refs                     39252                       # Sample count of references to valid blocks.
system.l3.tags.avg_refs                      6.590085                       # Average number of references to valid blocks.
system.l3.tags.warmup_cycle                    418000                       # Cycle when the warmup percentage was hit.
system.l3.tags.occ_blocks::writebacks        1.599436                       # Average occupied blocks per requestor
system.l3.tags.occ_blocks::cpu.inst         33.405296                       # Average occupied blocks per requestor
system.l3.tags.occ_blocks::cpu.data      15507.467067                       # Average occupied blocks per requestor
system.l3.tags.occ_percent::writebacks       0.000098                       # Average percentage of cache occupancy
system.l3.tags.occ_percent::cpu.inst         0.002039                       # Average percentage of cache occupancy
system.l3.tags.occ_percent::cpu.data         0.946501                       # Average percentage of cache occupancy
system.l3.tags.occ_percent::total            0.948637                       # Average percentage of cache occupancy
system.l3.tags.occ_task_id_blocks::1024         16384                       # Occupied blocks per task id
system.l3.tags.age_task_id_blocks_1024::0           25                       # Occupied blocks per task id
system.l3.tags.age_task_id_blocks_1024::1           38                       # Occupied blocks per task id
system.l3.tags.age_task_id_blocks_1024::4        16321                       # Occupied blocks per task id
system.l3.tags.occ_task_id_percent::1024            1                       # Percentage of cache occupancy per task id
system.l3.tags.tag_accesses                4238154068                       # Number of tag accesses
system.l3.tags.data_accesses               4238154068                       # Number of data accesses
system.l3.pwrStateResidencyTicks::UNDEFINED 292940651000                       # Cumulative time (in ticks) in various power states
system.l3.WritebackDirty_hits::writebacks       124808                       # number of WritebackDirty hits
system.l3.WritebackDirty_hits::total           124808                       # number of WritebackDirty hits
system.l3.ReadExReq_hits::cpu.data                183                       # number of ReadExReq hits
system.l3.ReadExReq_hits::total                   183                       # number of ReadExReq hits
system.l3.ReadSharedReq_hits::cpu.data          91071                       # number of ReadSharedReq hits
system.l3.ReadSharedReq_hits::total             91071                       # number of ReadSharedReq hits
system.l3.demand_hits::cpu.data                 91254                       # number of demand (read+write) hits
system.l3.demand_hits::total                    91254                       # number of demand (read+write) hits
system.l3.overall_hits::cpu.data                91254                       # number of overall hits
system.l3.overall_hits::total                   91254                       # number of overall hits
system.l3.ReadExReq_misses::cpu.data            18901                       # number of ReadExReq misses
system.l3.ReadExReq_misses::total               18901                       # number of ReadExReq misses
system.l3.ReadSharedReq_misses::cpu.inst          354                       # number of ReadSharedReq misses
system.l3.ReadSharedReq_misses::cpu.data        19988                       # number of ReadSharedReq misses
system.l3.ReadSharedReq_misses::total           20342                       # number of ReadSharedReq misses
system.l3.demand_misses::cpu.inst                 354                       # number of demand (read+write) misses
system.l3.demand_misses::cpu.data               38889                       # number of demand (read+write) misses
system.l3.demand_misses::total                  39243                       # number of demand (read+write) misses
system.l3.overall_misses::cpu.inst                354                       # number of overall misses
system.l3.overall_misses::cpu.data              38889                       # number of overall misses
system.l3.overall_misses::total                 39243                       # number of overall misses
system.l3.ReadExReq_miss_latency::cpu.data   1579566000                       # number of ReadExReq miss cycles
system.l3.ReadExReq_miss_latency::total    1579566000                       # number of ReadExReq miss cycles
system.l3.ReadSharedReq_miss_latency::cpu.inst     55365000                       # number of ReadSharedReq miss cycles
system.l3.ReadSharedReq_miss_latency::cpu.data   7705003000                       # number of ReadSharedReq miss cycles
system.l3.ReadSharedReq_miss_latency::total   7760368000                       # number of ReadSharedReq miss cycles
system.l3.demand_miss_latency::cpu.inst      55365000                       # number of demand (read+write) miss cycles
system.l3.demand_miss_latency::cpu.data    9284569000                       # number of demand (read+write) miss cycles
system.l3.demand_miss_latency::total       9339934000                       # number of demand (read+write) miss cycles
system.l3.overall_miss_latency::cpu.inst     55365000                       # number of overall miss cycles
system.l3.overall_miss_latency::cpu.data   9284569000                       # number of overall miss cycles
system.l3.overall_miss_latency::total      9339934000                       # number of overall miss cycles
system.l3.WritebackDirty_accesses::writebacks       124808                       # number of WritebackDirty accesses(hits+misses)
system.l3.WritebackDirty_accesses::total       124808                       # number of WritebackDirty accesses(hits+misses)
system.l3.ReadExReq_accesses::cpu.data          19084                       # number of ReadExReq accesses(hits+misses)
system.l3.ReadExReq_accesses::total             19084                       # number of ReadExReq accesses(hits+misses)
system.l3.ReadSharedReq_accesses::cpu.inst          354                       # number of ReadSharedReq accesses(hits+misses)
system.l3.ReadSharedReq_accesses::cpu.data       111059                       # number of ReadSharedReq accesses(hits+misses)
system.l3.ReadSharedReq_accesses::total        111413                       # number of ReadSharedReq accesses(hits+misses)
system.l3.demand_accesses::cpu.inst               354                       # number of demand (read+write) accesses
system.l3.demand_accesses::cpu.data            130143                       # number of demand (read+write) accesses
system.l3.demand_accesses::total               130497                       # number of demand (read+write) accesses
system.l3.overall_accesses::cpu.inst              354                       # number of overall (read+write) accesses
system.l3.overall_accesses::cpu.data           130143                       # number of overall (read+write) accesses
system.l3.overall_accesses::total              130497                       # number of overall (read+write) accesses
system.l3.ReadExReq_miss_rate::cpu.data      0.990411                       # miss rate for ReadExReq accesses
system.l3.ReadExReq_miss_rate::total         0.990411                       # miss rate for ReadExReq accesses
system.l3.ReadSharedReq_miss_rate::cpu.inst            1                       # miss rate for ReadSharedReq accesses
system.l3.ReadSharedReq_miss_rate::cpu.data     0.179976                       # miss rate for ReadSharedReq accesses
system.l3.ReadSharedReq_miss_rate::total     0.182582                       # miss rate for ReadSharedReq accesses
system.l3.demand_miss_rate::cpu.inst                1                       # miss rate for demand accesses
system.l3.demand_miss_rate::cpu.data         0.298817                       # miss rate for demand accesses
system.l3.demand_miss_rate::total            0.300720                       # miss rate for demand accesses
system.l3.overall_miss_rate::cpu.inst               1                       # miss rate for overall accesses
system.l3.overall_miss_rate::cpu.data        0.298817                       # miss rate for overall accesses
system.l3.overall_miss_rate::total           0.300720                       # miss rate for overall accesses
system.l3.ReadExReq_avg_miss_latency::cpu.data 83570.498915                       # average ReadExReq miss latency
system.l3.ReadExReq_avg_miss_latency::total 83570.498915                       # average ReadExReq miss latency
system.l3.ReadSharedReq_avg_miss_latency::cpu.inst 156398.305085                       # average ReadSharedReq miss latency
system.l3.ReadSharedReq_avg_miss_latency::cpu.data 385481.438863                       # average ReadSharedReq miss latency
system.l3.ReadSharedReq_avg_miss_latency::total 381494.838266                       # average ReadSharedReq miss latency
system.l3.demand_avg_miss_latency::cpu.inst 156398.305085                       # average overall miss latency
system.l3.demand_avg_miss_latency::cpu.data 238745.377870                       # average overall miss latency
system.l3.demand_avg_miss_latency::total 238002.548225                       # average overall miss latency
system.l3.overall_avg_miss_latency::cpu.inst 156398.305085                       # average overall miss latency
system.l3.overall_avg_miss_latency::cpu.data 238745.377870                       # average overall miss latency
system.l3.overall_avg_miss_latency::total 238002.548225                       # average overall miss latency
system.l3.blocked_cycles::no_mshrs                  0                       # number of cycles access was blocked
system.l3.blocked_cycles::no_targets                0                       # number of cycles access was blocked
system.l3.blocked::no_mshrs                         0                       # number of cycles access was blocked
system.l3.blocked::no_targets                       0                       # number of cycles access was blocked
system.l3.avg_blocked_cycles::no_mshrs            nan                       # average number of cycles each access was blocked
system.l3.avg_blocked_cycles::no_targets          nan                       # average number of cycles each access was blocked
system.l3.writebacks::writebacks                22464                       # number of writebacks
system.l3.writebacks::total                     22464                       # number of writebacks
system.l3.ReadExReq_mshr_misses::cpu.data        18901                       # number of ReadExReq MSHR misses
system.l3.ReadExReq_mshr_misses::total          18901                       # number of ReadExReq MSHR misses
system.l3.ReadSharedReq_mshr_misses::cpu.inst          354                       # number of ReadSharedReq MSHR misses
system.l3.ReadSharedReq_mshr_misses::cpu.data        19988                       # number of ReadSharedReq MSHR misses
system.l3.ReadSharedReq_mshr_misses::total        20342                       # number of ReadSharedReq MSHR misses
system.l3.demand_mshr_misses::cpu.inst            354                       # number of demand (read+write) MSHR misses
system.l3.demand_mshr_misses::cpu.data          38889                       # number of demand (read+write) MSHR misses
system.l3.demand_mshr_misses::total             39243                       # number of demand (read+write) MSHR misses
system.l3.overall_mshr_misses::cpu.inst           354                       # number of overall MSHR misses
system.l3.overall_mshr_misses::cpu.data         38889                       # number of overall MSHR misses
system.l3.overall_mshr_misses::total            39243                       # number of overall MSHR misses
system.l3.ReadExReq_mshr_miss_latency::cpu.data   1277150000                       # number of ReadExReq MSHR miss cycles
system.l3.ReadExReq_mshr_miss_latency::total   1277150000                       # number of ReadExReq MSHR miss cycles
system.l3.ReadSharedReq_mshr_miss_latency::cpu.inst     49701000                       # number of ReadSharedReq MSHR miss cycles
system.l3.ReadSharedReq_mshr_miss_latency::cpu.data   7385195000                       # number of ReadSharedReq MSHR miss cycles
system.l3.ReadSharedReq_mshr_miss_latency::total   7434896000                       # number of ReadSharedReq MSHR miss cycles
system.l3.demand_mshr_miss_latency::cpu.inst     49701000                       # number of demand (read+write) MSHR miss cycles
system.l3.demand_mshr_miss_latency::cpu.data   8662345000                       # number of demand (read+write) MSHR miss cycles
system.l3.demand_mshr_miss_latency::total   8712046000                       # number of demand (read+write) MSHR miss cycles
system.l3.overall_mshr_miss_latency::cpu.inst     49701000                       # number of overall MSHR miss cycles
system.l3.overall_mshr_miss_latency::cpu.data   8662345000                       # number of overall MSHR miss cycles
system.l3.overall_mshr_miss_latency::total   8712046000                       # number of overall MSHR miss cycles
system.l3.ReadExReq_mshr_miss_rate::cpu.data     0.990411                       # mshr miss rate for ReadExReq accesses
system.l3.ReadExReq_mshr_miss_rate::total     0.990411                       # mshr miss rate for ReadExReq accesses
system.l3.ReadSharedReq_mshr_miss_rate::cpu.inst            1                       # mshr miss rate for ReadSharedReq accesses
system.l3.ReadSharedReq_mshr_miss_rate::cpu.data     0.179976                       # mshr miss rate for ReadSharedReq accesses
system.l3.ReadSharedReq_mshr_miss_rate::total     0.182582                       # mshr miss rate for ReadSharedReq accesses
system.l3.demand_mshr_miss_rate::cpu.inst            1                       # mshr miss rate for demand accesses
system.l3.demand_mshr_miss_rate::cpu.data     0.298817                       # mshr miss rate for demand accesses
system.l3.demand_mshr_miss_rate::total       0.300720                       # mshr miss rate for demand accesses
system.l3.overall_mshr_miss_rate::cpu.inst            1                       # mshr miss rate for overall accesses
system.l3.overall_mshr_miss_rate::cpu.data     0.298817                       # mshr miss rate for overall accesses
system.l3.overall_mshr_miss_rate::total      0.300720                       # mshr miss rate for overall accesses
system.l3.ReadExReq_avg_mshr_miss_latency::cpu.data 67570.498915                       # average ReadExReq mshr miss latency
system.l3.ReadExReq_avg_mshr_miss_latency::total 67570.498915                       # average ReadExReq mshr miss latency
system.l3.ReadSharedReq_avg_mshr_miss_latency::cpu.inst 140398.305085                       # average ReadSharedReq mshr miss latency
system.l3.ReadSharedReq_avg_mshr_miss_latency::cpu.data 369481.438863                       # average ReadSharedReq mshr miss latency
system.l3.ReadSharedReq_avg_mshr_miss_latency::total 365494.838266                       # average ReadSharedReq mshr miss latency
system.l3.demand_avg_mshr_miss_latency::cpu.inst 140398.305085                       # average overall mshr miss latency
system.l3.demand_avg_mshr_miss_latency::cpu.data 222745.377870                       # average overall mshr miss latency
system.l3.demand_avg_mshr_miss_latency::total 222002.548225                       # average overall mshr miss latency
system.l3.overall_avg_mshr_miss_latency::cpu.inst 140398.305085                       # average overall mshr miss latency
system.l3.overall_avg_mshr_miss_latency::cpu.data 222745.377870                       # average overall mshr miss latency
system.l3.overall_avg_mshr_miss_latency::total 222002.548225                       # average overall mshr miss latency
system.l3.replacements                          22868                       # number of replacements
system.membus.snoop_filter.tot_requests         61821                       # Total number of requests made to the snoop filter.
system.membus.snoop_filter.hit_single_requests        22578                       # Number of requests hitting in the snoop filter with a single holder of the requested data.
system.membus.snoop_filter.hit_multi_requests            0                       # Number of requests hitting in the snoop filter with multiple (>1) holders of the requested data.
system.membus.snoop_filter.tot_snoops               0                       # Total number of snoops made to the snoop filter.
system.membus.snoop_filter.hit_single_snoops            0                       # Number of snoops hitting in the snoop filter with a single holder of the requested data.
system.membus.snoop_filter.hit_multi_snoops            0                       # Number of snoops hitting in the snoop filter with multiple (>1) holders of the requested data.
system.membus.pwrStateResidencyTicks::UNDEFINED 292940651000                       # Cumulative time (in ticks) in various power states
system.membus.trans_dist::ReadResp              20342                       # Transaction distribution
system.membus.trans_dist::WritebackDirty        22464                       # Transaction distribution
system.membus.trans_dist::CleanEvict              114                       # Transaction distribution
system.membus.trans_dist::ReadExReq             18901                       # Transaction distribution
system.membus.trans_dist::ReadExResp            18901                       # Transaction distribution
system.membus.trans_dist::ReadSharedReq         20342                       # Transaction distribution
system.membus.pkt_count_system.l3.mem_side::system.mem_ctrls.port       101064                       # Packet count per connected master and slave (bytes)
system.membus.pkt_count_system.l3.mem_side::total       101064                       # Packet count per connected master and slave (bytes)
system.membus.pkt_count::total                 101064                       # Packet count per connected master and slave (bytes)
system.membus.pkt_size_system.l3.mem_side::system.mem_ctrls.port      3949248                       # Cumulative packet size per connected master and slave (bytes)
system.membus.pkt_size_system.l3.mem_side::total      3949248                       # Cumulative packet size per connected master and slave (bytes)
system.membus.pkt_size::total                 3949248                       # Cumulative packet size per connected master and slave (bytes)
system.membus.snoops                                0                       # Total snoops (count)
system.membus.snoopTraffic                          0                       # Total snoop traffic (bytes)
system.membus.snoop_fanout::samples             39243                       # Request fanout histogram
system.membus.snoop_fanout::mean                    0                       # Request fanout histogram
system.membus.snoop_fanout::stdev                   0                       # Request fanout histogram
system.membus.snoop_fanout::underflows              0      0.00%      0.00% # Request fanout histogram
system.membus.snoop_fanout::0                   39243    100.00%    100.00% # Request fanout histogram
system.membus.snoop_fanout::1                       0      0.00%    100.00% # Request fanout histogram
system.membus.snoop_fanout::overflows               0      0.00%    100.00% # Request fanout histogram
system.membus.snoop_fanout::min_value               0                       # Request fanout histogram
system.membus.snoop_fanout::max_value               0                       # Request fanout histogram
system.membus.snoop_fanout::total               39243                       # Request fanout histogram
system.membus.reqLayer2.occupancy           151682500                       # Layer occupancy (ticks)
system.membus.reqLayer2.utilization               0.1                       # Layer utilization (%)
system.membus.respLayer1.occupancy          196220500                       # Layer occupancy (ticks)
system.membus.respLayer1.utilization              0.1                       # Layer utilization (%)
system.tol2bus.snoop_filter.tot_requests       436417                       # Total number of requests made to the snoop filter.
system.tol2bus.snoop_filter.hit_single_requests       257760                       # Number of requests hitting in the snoop filter with a single holder of the requested data.
system.tol2bus.snoop_filter.hit_multi_requests            0                       # Number of requests hitting in the snoop filter with multiple (>1) holders of the requested data.
system.tol2bus.snoop_filter.tot_snoops            604                       # Total number of snoops made to the snoop filter.
system.tol2bus.snoop_filter.hit_single_snoops          604                       # Number of snoops hitting in the snoop filter with a single holder of the requested data.
system.tol2bus.snoop_filter.hit_multi_snoops            0                       # Number of snoops hitting in the snoop filter with multiple (>1) holders of the requested data.
system.tol2bus.pwrStateResidencyTicks::UNDEFINED 292940651000                       # Cumulative time (in ticks) in various power states
system.tol2bus.trans_dist::ReadResp            158713                       # Transaction distribution
system.tol2bus.trans_dist::WritebackDirty       313668                       # Transaction distribution
system.tol2bus.trans_dist::WritebackClean           44                       # Transaction distribution
system.tol2bus.trans_dist::CleanEvict           15482                       # Transaction distribution
system.tol2bus.trans_dist::UpgradeReq           79925                       # Transaction distribution
system.tol2bus.trans_dist::UpgradeResp          79925                       # Transaction distribution
system.tol2bus.trans_dist::ReadExReq            19944                       # Transaction distribution
system.tol2bus.trans_dist::ReadExResp           19944                       # Transaction distribution
system.tol2bus.trans_dist::ReadCleanReq           354                       # Transaction distribution
system.tol2bus.trans_dist::ReadSharedReq       158359                       # Transaction distribution
system.tol2bus.pkt_count_system.cpu.icache.mem_side::system.l2.cpu_side          752                       # Packet count per connected master and slave (bytes)
system.tol2bus.pkt_count_system.cpu.dcache.mem_side::system.l2.cpu_side       694247                       # Packet count per connected master and slave (bytes)
system.tol2bus.pkt_count::total                694999                       # Packet count per connected master and slave (bytes)
system.tol2bus.pkt_size_system.cpu.icache.mem_side::system.l2.cpu_side        25472                       # Cumulative packet size per connected master and slave (bytes)
system.tol2bus.pkt_size_system.cpu.dcache.mem_side::system.l2.cpu_side     22060736                       # Cumulative packet size per connected master and slave (bytes)
system.tol2bus.pkt_size::total               22086208                       # Cumulative packet size per connected master and slave (bytes)
system.tol2bus.snoops                          151359                       # Total snoops (count)
system.tol2bus.snoopTraffic                   9425408                       # Total snoop traffic (bytes)
system.tol2bus.snoop_fanout::samples           409941                       # Request fanout histogram
system.tol2bus.snoop_fanout::mean            0.001473                       # Request fanout histogram
system.tol2bus.snoop_fanout::stdev           0.038356                       # Request fanout histogram
system.tol2bus.snoop_fanout::underflows             0      0.00%      0.00% # Request fanout histogram
system.tol2bus.snoop_fanout::0                 409337     99.85%     99.85% # Request fanout histogram
system.tol2bus.snoop_fanout::1                    604      0.15%    100.00% # Request fanout histogram
system.tol2bus.snoop_fanout::2                      0      0.00%    100.00% # Request fanout histogram
system.tol2bus.snoop_fanout::3                      0      0.00%    100.00% # Request fanout histogram
system.tol2bus.snoop_fanout::4                      0      0.00%    100.00% # Request fanout histogram
system.tol2bus.snoop_fanout::overflows              0      0.00%    100.00% # Request fanout histogram
system.tol2bus.snoop_fanout::min_value              0                       # Request fanout histogram
system.tol2bus.snoop_fanout::max_value              1                       # Request fanout histogram
system.tol2bus.snoop_fanout::total             409941                       # Request fanout histogram
system.tol2bus.reqLayer0.occupancy          384648500                       # Layer occupancy (ticks)
system.tol2bus.reqLayer0.utilization              0.1                       # Layer utilization (%)
system.tol2bus.respLayer0.occupancy            531000                       # Layer occupancy (ticks)
system.tol2bus.respLayer0.utilization             0.0                       # Layer utilization (%)
system.tol2bus.respLayer1.occupancy         307417000                       # Layer occupancy (ticks)
system.tol2bus.respLayer1.utilization             0.1                       # Layer utilization (%)
system.tol3bus.pwrStateResidencyTicks::UNDEFINED 292940651000                       # Cumulative time (in ticks) in various power states
system.tol3bus.trans_dist::ReadResp            111413                       # Transaction distribution
system.tol3bus.trans_dist::WritebackDirty       147272                       # Transaction distribution
system.tol3bus.trans_dist::CleanEvict            3773                       # Transaction distribution
system.tol3bus.trans_dist::ReadExReq            19084                       # Transaction distribution
system.tol3bus.trans_dist::ReadExResp           19084                       # Transaction distribution
system.tol3bus.trans_dist::ReadSharedReq       111413                       # Transaction distribution
system.tol3bus.pkt_count_system.l2.mem_side::system.l3.cpu_side       389171                       # Packet count per connected master and slave (bytes)
system.tol3bus.pkt_size_system.l2.mem_side::system.l3.cpu_side     16339520                       # Cumulative packet size per connected master and slave (bytes)
system.tol3bus.snoops                           22868                       # Total snoops (count)
system.tol3bus.snoopTraffic                   1437696                       # Total snoop traffic (bytes)
system.tol3bus.snoop_fanout::samples           281542                       # Request fanout histogram
system.tol3bus.snoop_fanout::mean            0.081224                       # Request fanout histogram
system.tol3bus.snoop_fanout::stdev           0.273179                       # Request fanout histogram
system.tol3bus.snoop_fanout::underflows             0      0.00%      0.00% # Request fanout histogram
system.tol3bus.snoop_fanout::0                 258674     91.88%     91.88% # Request fanout histogram
system.tol3bus.snoop_fanout::1                  22868      8.12%    100.00% # Request fanout histogram
system.tol3bus.snoop_fanout::overflows              0      0.00%    100.00% # Request fanout histogram
system.tol3bus.snoop_fanout::min_value              0                       # Request fanout histogram
system.tol3bus.snoop_fanout::max_value              1                       # Request fanout histogram
system.tol3bus.snoop_fanout::total             281542                       # Request fanout histogram
system.tol3bus.reqLayer0.occupancy          254145000                       # Layer occupancy (ticks)
system.tol3bus.reqLayer0.utilization              0.1                       # Layer utilization (%)
system.tol3bus.respLayer0.occupancy         195745500                       # Layer occupancy (ticks)
system.tol3bus.respLayer0.utilization             0.1                       # Layer utilization (%)

---------- End Simulation Statistics   ----------
