
---------- Begin Simulation Statistics ----------
sim_seconds                                  1.945383                       # Number of seconds simulated
sim_ticks                                1945383173000                       # Number of ticks simulated
final_tick                               1945383173000                       # Number of ticks from beginning of simulation (restored from checkpoints and never reset)
sim_freq                                 1000000000000                       # Frequency of simulated ticks
host_inst_rate                                 951902                       # Simulator instruction rate (inst/s)
host_op_rate                                  1524890                       # Simulator op (including micro ops) rate (op/s)
host_tick_rate                             1987991417                       # Simulator tick rate (ticks/s)
host_mem_usage                                 663980                       # Number of bytes of host memory used
host_seconds                                   978.57                       # Real time elapsed on the host
sim_insts                                   931499910                       # Number of instructions simulated
sim_ops                                    1492207794                       # Number of ops (including micro ops) simulated
system.voltage_domain.voltage                       1                       # Voltage in Volts
system.clk_domain.clock                          1000                       # Clock period in ticks
system.mem_ctrls.pwrStateResidencyTicks::UNDEFINED 1945383173000                       # Cumulative time (in ticks) in various power states
system.mem_ctrls.bytes_read::cpu.inst           22720                       # Number of bytes read from this memory
system.mem_ctrls.bytes_read::cpu.data         1094592                       # Number of bytes read from this memory
system.mem_ctrls.bytes_read::total            1117312                       # Number of bytes read from this memory
system.mem_ctrls.bytes_inst_read::cpu.inst        22720                       # Number of instructions bytes read from this memory
system.mem_ctrls.bytes_inst_read::total         22720                       # Number of instructions bytes read from this memory
system.mem_ctrls.bytes_written::writebacks        44224                       # Number of bytes written to this memory
system.mem_ctrls.bytes_written::total           44224                       # Number of bytes written to this memory
system.mem_ctrls.num_reads::cpu.inst              355                       # Number of read requests responded to by this memory
system.mem_ctrls.num_reads::cpu.data            17103                       # Number of read requests responded to by this memory
system.mem_ctrls.num_reads::total               17458                       # Number of read requests responded to by this memory
system.mem_ctrls.num_writes::writebacks           691                       # Number of write requests responded to by this memory
system.mem_ctrls.num_writes::total                691                       # Number of write requests responded to by this memory
system.mem_ctrls.bw_read::cpu.inst              11679                       # Total read bandwidth from this memory (bytes/s)
system.mem_ctrls.bw_read::cpu.data             562661                       # Total read bandwidth from this memory (bytes/s)
system.mem_ctrls.bw_read::total                574340                       # Total read bandwidth from this memory (bytes/s)
system.mem_ctrls.bw_inst_read::cpu.inst         11679                       # Instruction read bandwidth from this memory (bytes/s)
system.mem_ctrls.bw_inst_read::total            11679                       # Instruction read bandwidth from this memory (bytes/s)
system.mem_ctrls.bw_write::writebacks           22733                       # Write bandwidth from this memory (bytes/s)
system.mem_ctrls.bw_write::total                22733                       # Write bandwidth from this memory (bytes/s)
system.mem_ctrls.bw_total::writebacks           22733                       # Total bandwidth to/from this memory (bytes/s)
system.mem_ctrls.bw_total::cpu.inst             11679                       # Total bandwidth to/from this memory (bytes/s)
system.mem_ctrls.bw_total::cpu.data            562661                       # Total bandwidth to/from this memory (bytes/s)
system.mem_ctrls.bw_total::total               597073                       # Total bandwidth to/from this memory (bytes/s)
system.pwrStateResidencyTicks::UNDEFINED 1945383173000                       # Cumulative time (in ticks) in various power states
system.cpu_voltage_domain.voltage                   1                       # Voltage in Volts
system.cpu_clk_domain.clock                       500                       # Clock period in ticks
system.cpu.dtb.walker.pwrStateResidencyTicks::UNDEFINED 1945383173000                       # Cumulative time (in ticks) in various power states
system.cpu.dtb.rdAccesses                   382684118                       # TLB accesses on read requests
system.cpu.dtb.wrAccesses                    56342491                       # TLB accesses on write requests
system.cpu.dtb.rdMisses                       7936310                       # TLB misses on read requests
system.cpu.dtb.wrMisses                           272                       # TLB misses on write requests
system.cpu.apic_clk_domain.clock                 8000                       # Clock period in ticks
system.cpu.interrupts.pwrStateResidencyTicks::UNDEFINED 1945383173000                       # Cumulative time (in ticks) in various power states
system.cpu.itb.walker.pwrStateResidencyTicks::UNDEFINED 1945383173000                       # Cumulative time (in ticks) in various power states
system.cpu.itb.rdAccesses                           0                       # TLB accesses on read requests
system.cpu.itb.wrAccesses                  1422005638                       # TLB accesses on write requests
system.cpu.itb.rdMisses                             0                       # TLB misses on read requests
system.cpu.itb.wrMisses                            36                       # TLB misses on write requests
system.cpu.workload.numSyscalls                     9                       # Number of system calls
system.cpu.pwrStateResidencyTicks::ON    1945383173000                       # Cumulative time (in ticks) in various power states
system.cpu.numCycles                       3890766346                       # number of cpu cycles simulated
system.cpu.numWorkItemsStarted                      0                       # number of work items this cpu started
system.cpu.numWorkItemsCompleted                    0                       # number of work items this cpu completed
system.cpu.committedInsts                   931499910                       # Number of instructions committed
system.cpu.committedOps                    1492207794                       # Number of ops (including micro ops) committed
system.cpu.num_int_alu_accesses            1491701080                       # Number of integer alu accesses
system.cpu.num_fp_alu_accesses                   1967                       # Number of float alu accesses
system.cpu.num_vec_alu_accesses                     0                       # Number of vector alu accesses
system.cpu.num_func_calls                     1080242                       # number of times a function call or return occured
system.cpu.num_conditional_control_insts     29571460                       # number of instructions that are conditional controls
system.cpu.num_int_insts                   1491701080                       # number of integer instructions
system.cpu.num_fp_insts                          1967                       # number of float instructions
system.cpu.num_vec_insts                            0                       # number of vector instructions
system.cpu.num_int_register_reads          2934935084                       # number of times the integer registers were read
system.cpu.num_int_register_writes         1545512944                       # number of times the integer registers were written
system.cpu.num_fp_register_reads                 3779                       # number of times the floating registers were read
system.cpu.num_fp_register_writes                1492                       # number of times the floating registers were written
system.cpu.num_vec_register_reads                   0                       # number of times the vector registers were read
system.cpu.num_vec_register_writes                  0                       # number of times the vector registers were written
system.cpu.num_cc_register_reads            159199327                       # number of times the CC registers were read
system.cpu.num_cc_register_writes           523310526                       # number of times the CC registers were written
system.cpu.num_mem_refs                     439026603                       # number of memory refs
system.cpu.num_load_insts                   382684113                       # Number of load instructions
system.cpu.num_store_insts                   56342490                       # Number of store instructions
system.cpu.num_idle_cycles                          0                       # Number of idle cycles
system.cpu.num_busy_cycles                 3890766346                       # Number of busy cycles
system.cpu.not_idle_fraction                        1                       # Percentage of non-idle cycles
system.cpu.idle_fraction                            0                       # Percentage of idle cycles
system.cpu.Branches                          30742412                       # Number of branches fetched
system.cpu.op_class::No_OpClass                505293      0.03%      0.03% # Class of executed instruction
system.cpu.op_class::IntAlu                 914844152     61.31%     61.34% # Class of executed instruction
system.cpu.op_class::IntMult                135270004      9.07%     70.41% # Class of executed instruction
system.cpu.op_class::IntDiv                   2560782      0.17%     70.58% # Class of executed instruction
system.cpu.op_class::FloatAdd                      10      0.00%     70.58% # Class of executed instruction
system.cpu.op_class::FloatCmp                       0      0.00%     70.58% # Class of executed instruction
system.cpu.op_class::FloatCvt                       0      0.00%     70.58% # Class of executed instruction
system.cpu.op_class::FloatMult                      0      0.00%     70.58% # Class of executed instruction
system.cpu.op_class::FloatMultAcc                   0      0.00%     70.58% # Class of executed instruction
system.cpu.op_class::FloatDiv                       0      0.00%     70.58% # Class of executed instruction
system.cpu.op_class::FloatMisc                      0      0.00%     70.58% # Class of executed instruction
system.cpu.op_class::FloatSqrt                      0      0.00%     70.58% # Class of executed instruction
system.cpu.op_class::SimdAdd                      374      0.00%     70.58% # Class of executed instruction
system.cpu.op_class::SimdAddAcc                     0      0.00%     70.58% # Class of executed instruction
system.cpu.op_class::SimdAlu                       68      0.00%     70.58% # Class of executed instruction
system.cpu.op_class::SimdCmp                        0      0.00%     70.58% # Class of executed instruction
system.cpu.op_class::SimdCvt                      108      0.00%     70.58% # Class of executed instruction
system.cpu.op_class::SimdMisc                     214      0.00%     70.58% # Class of executed instruction
system.cpu.op_class::SimdMult                       0      0.00%     70.58% # Class of executed instruction
system.cpu.op_class::SimdMultAcc                    0      0.00%     70.58% # Class of executed instruction
system.cpu.op_class::SimdShift                    186      0.00%     70.58% # Class of executed instruction
system.cpu.op_class::SimdShiftAcc                   0      0.00%     70.58% # Class of executed instruction
system.cpu.op_class::SimdSqrt                       0      0.00%     70.58% # Class of executed instruction
system.cpu.op_class::SimdFloatAdd                   0      0.00%     70.58% # Class of executed instruction
system.cpu.op_class::SimdFloatAlu                   0      0.00%     70.58% # Class of executed instruction
system.cpu.op_class::SimdFloatCmp                   0      0.00%     70.58% # Class of executed instruction
system.cpu.op_class::SimdFloatCvt                   0      0.00%     70.58% # Class of executed instruction
system.cpu.op_class::SimdFloatDiv                   0      0.00%     70.58% # Class of executed instruction
system.cpu.op_class::SimdFloatMisc                  0      0.00%     70.58% # Class of executed instruction
system.cpu.op_class::SimdFloatMult                  0      0.00%     70.58% # Class of executed instruction
system.cpu.op_class::SimdFloatMultAcc               0      0.00%     70.58% # Class of executed instruction
system.cpu.op_class::SimdFloatSqrt                  0      0.00%     70.58% # Class of executed instruction
system.cpu.op_class::MemRead                382684045     25.65%     96.22% # Class of executed instruction
system.cpu.op_class::MemWrite                56342063      3.78%    100.00% # Class of executed instruction
system.cpu.op_class::FloatMemRead                  68      0.00%    100.00% # Class of executed instruction
system.cpu.op_class::FloatMemWrite                427      0.00%    100.00% # Class of executed instruction
system.cpu.op_class::IprAccess                      0      0.00%    100.00% # Class of executed instruction
system.cpu.op_class::InstPrefetch                   0      0.00%    100.00% # Class of executed instruction
system.cpu.op_class::total                 1492207794                       # Class of executed instruction
system.cpu.dcache.tags.pwrStateResidencyTicks::UNDEFINED 1945383173000                       # Cumulative time (in ticks) in various power states
system.cpu.dcache.tags.tagsinuse           511.895471                       # Cycle average of tags in use
system.cpu.dcache.tags.total_refs           439026609                       # Total number of references to valid blocks.
system.cpu.dcache.tags.sampled_refs           3126570                       # Sample count of references to valid blocks.
system.cpu.dcache.tags.avg_refs            140.417969                       # Average number of references to valid blocks.
system.cpu.dcache.tags.warmup_cycle            765000                       # Cycle when the warmup percentage was hit.
system.cpu.dcache.tags.occ_blocks::cpu.data   511.895471                       # Average occupied blocks per requestor
system.cpu.dcache.tags.occ_percent::cpu.data     0.999796                       # Average percentage of cache occupancy
system.cpu.dcache.tags.occ_percent::total     0.999796                       # Average percentage of cache occupancy
system.cpu.dcache.tags.occ_task_id_blocks::1024          512                       # Occupied blocks per task id
system.cpu.dcache.tags.age_task_id_blocks_1024::0           10                       # Occupied blocks per task id
system.cpu.dcache.tags.age_task_id_blocks_1024::1           54                       # Occupied blocks per task id
system.cpu.dcache.tags.age_task_id_blocks_1024::2          447                       # Occupied blocks per task id
system.cpu.dcache.tags.age_task_id_blocks_1024::4            1                       # Occupied blocks per task id
system.cpu.dcache.tags.occ_task_id_percent::1024            1                       # Percentage of cache occupancy per task id
system.cpu.dcache.tags.tag_accesses         881179788                       # Number of tag accesses
system.cpu.dcache.tags.data_accesses        881179788                       # Number of data accesses
system.cpu.dcache.pwrStateResidencyTicks::UNDEFINED 1945383173000                       # Cumulative time (in ticks) in various power states
system.cpu.dcache.ReadReq_hits::cpu.data    379577688                       # number of ReadReq hits
system.cpu.dcache.ReadReq_hits::total       379577688                       # number of ReadReq hits
system.cpu.dcache.WriteReq_hits::cpu.data     56322351                       # number of WriteReq hits
system.cpu.dcache.WriteReq_hits::total       56322351                       # number of WriteReq hits
system.cpu.dcache.demand_hits::cpu.data     435900039                       # number of demand (read+write) hits
system.cpu.dcache.demand_hits::total        435900039                       # number of demand (read+write) hits
system.cpu.dcache.overall_hits::cpu.data    435900039                       # number of overall hits
system.cpu.dcache.overall_hits::total       435900039                       # number of overall hits
system.cpu.dcache.ReadReq_misses::cpu.data      3106430                       # number of ReadReq misses
system.cpu.dcache.ReadReq_misses::total       3106430                       # number of ReadReq misses
system.cpu.dcache.WriteReq_misses::cpu.data        20140                       # number of WriteReq misses
system.cpu.dcache.WriteReq_misses::total        20140                       # number of WriteReq misses
system.cpu.dcache.demand_misses::cpu.data      3126570                       # number of demand (read+write) misses
system.cpu.dcache.demand_misses::total        3126570                       # number of demand (read+write) misses
system.cpu.dcache.overall_misses::cpu.data      3126570                       # number of overall misses
system.cpu.dcache.overall_misses::total       3126570                       # number of overall misses
system.cpu.dcache.ReadReq_miss_latency::cpu.data  86132209000                       # number of ReadReq miss cycles
system.cpu.dcache.ReadReq_miss_latency::total  86132209000                       # number of ReadReq miss cycles
system.cpu.dcache.WriteReq_miss_latency::cpu.data   1276989000                       # number of WriteReq miss cycles
system.cpu.dcache.WriteReq_miss_latency::total   1276989000                       # number of WriteReq miss cycles
system.cpu.dcache.demand_miss_latency::cpu.data  87409198000                       # number of demand (read+write) miss cycles
system.cpu.dcache.demand_miss_latency::total  87409198000                       # number of demand (read+write) miss cycles
system.cpu.dcache.overall_miss_latency::cpu.data  87409198000                       # number of overall miss cycles
system.cpu.dcache.overall_miss_latency::total  87409198000                       # number of overall miss cycles
system.cpu.dcache.ReadReq_accesses::cpu.data    382684118                       # number of ReadReq accesses(hits+misses)
system.cpu.dcache.ReadReq_accesses::total    382684118                       # number of ReadReq accesses(hits+misses)
system.cpu.dcache.WriteReq_accesses::cpu.data     56342491                       # number of WriteReq accesses(hits+misses)
system.cpu.dcache.WriteReq_accesses::total     56342491                       # number of WriteReq accesses(hits+misses)
system.cpu.dcache.demand_accesses::cpu.data    439026609                       # number of demand (read+write) accesses
system.cpu.dcache.demand_accesses::total    439026609                       # number of demand (read+write) accesses
system.cpu.dcache.overall_accesses::cpu.data    439026609                       # number of overall (read+write) accesses
system.cpu.dcache.overall_accesses::total    439026609                       # number of overall (read+write) accesses
system.cpu.dcache.ReadReq_miss_rate::cpu.data     0.008117                       # miss rate for ReadReq accesses
system.cpu.dcache.ReadReq_miss_rate::total     0.008117                       # miss rate for ReadReq accesses
system.cpu.dcache.WriteReq_miss_rate::cpu.data     0.000357                       # miss rate for WriteReq accesses
system.cpu.dcache.WriteReq_miss_rate::total     0.000357                       # miss rate for WriteReq accesses
system.cpu.dcache.demand_miss_rate::cpu.data     0.007122                       # miss rate for demand accesses
system.cpu.dcache.demand_miss_rate::total     0.007122                       # miss rate for demand accesses
system.cpu.dcache.overall_miss_rate::cpu.data     0.007122                       # miss rate for overall accesses
system.cpu.dcache.overall_miss_rate::total     0.007122                       # miss rate for overall accesses
system.cpu.dcache.ReadReq_avg_miss_latency::cpu.data 27727.072234                       # average ReadReq miss latency
system.cpu.dcache.ReadReq_avg_miss_latency::total 27727.072234                       # average ReadReq miss latency
system.cpu.dcache.WriteReq_avg_miss_latency::cpu.data 63405.610725                       # average WriteReq miss latency
system.cpu.dcache.WriteReq_avg_miss_latency::total 63405.610725                       # average WriteReq miss latency
system.cpu.dcache.demand_avg_miss_latency::cpu.data 27956.897815                       # average overall miss latency
system.cpu.dcache.demand_avg_miss_latency::total 27956.897815                       # average overall miss latency
system.cpu.dcache.overall_avg_miss_latency::cpu.data 27956.897815                       # average overall miss latency
system.cpu.dcache.overall_avg_miss_latency::total 27956.897815                       # average overall miss latency
system.cpu.dcache.blocked_cycles::no_mshrs            0                       # number of cycles access was blocked
system.cpu.dcache.blocked_cycles::no_targets            0                       # number of cycles access was blocked
system.cpu.dcache.blocked::no_mshrs                 0                       # number of cycles access was blocked
system.cpu.dcache.blocked::no_targets               0                       # number of cycles access was blocked
system.cpu.dcache.avg_blocked_cycles::no_mshrs          nan                       # average number of cycles each access was blocked
system.cpu.dcache.avg_blocked_cycles::no_targets          nan                       # average number of cycles each access was blocked
system.cpu.dcache.writebacks::writebacks      1433050                       # number of writebacks
system.cpu.dcache.writebacks::total           1433050                       # number of writebacks
system.cpu.dcache.ReadReq_mshr_misses::cpu.data      3106430                       # number of ReadReq MSHR misses
system.cpu.dcache.ReadReq_mshr_misses::total      3106430                       # number of ReadReq MSHR misses
system.cpu.dcache.WriteReq_mshr_misses::cpu.data        20140                       # number of WriteReq MSHR misses
system.cpu.dcache.WriteReq_mshr_misses::total        20140                       # number of WriteReq MSHR misses
system.cpu.dcache.demand_mshr_misses::cpu.data      3126570                       # number of demand (read+write) MSHR misses
system.cpu.dcache.demand_mshr_misses::total      3126570                       # number of demand (read+write) MSHR misses
system.cpu.dcache.overall_mshr_misses::cpu.data      3126570                       # number of overall MSHR misses
system.cpu.dcache.overall_mshr_misses::total      3126570                       # number of overall MSHR misses
system.cpu.dcache.ReadReq_mshr_miss_latency::cpu.data  83025779000                       # number of ReadReq MSHR miss cycles
system.cpu.dcache.ReadReq_mshr_miss_latency::total  83025779000                       # number of ReadReq MSHR miss cycles
system.cpu.dcache.WriteReq_mshr_miss_latency::cpu.data   1256849000                       # number of WriteReq MSHR miss cycles
system.cpu.dcache.WriteReq_mshr_miss_latency::total   1256849000                       # number of WriteReq MSHR miss cycles
system.cpu.dcache.demand_mshr_miss_latency::cpu.data  84282628000                       # number of demand (read+write) MSHR miss cycles
system.cpu.dcache.demand_mshr_miss_latency::total  84282628000                       # number of demand (read+write) MSHR miss cycles
system.cpu.dcache.overall_mshr_miss_latency::cpu.data  84282628000                       # number of overall MSHR miss cycles
system.cpu.dcache.overall_mshr_miss_latency::total  84282628000                       # number of overall MSHR miss cycles
system.cpu.dcache.ReadReq_mshr_miss_rate::cpu.data     0.008117                       # mshr miss rate for ReadReq accesses
system.cpu.dcache.ReadReq_mshr_miss_rate::total     0.008117                       # mshr miss rate for ReadReq accesses
system.cpu.dcache.WriteReq_mshr_miss_rate::cpu.data     0.000357                       # mshr miss rate for WriteReq accesses
system.cpu.dcache.WriteReq_mshr_miss_rate::total     0.000357                       # mshr miss rate for WriteReq accesses
system.cpu.dcache.demand_mshr_miss_rate::cpu.data     0.007122                       # mshr miss rate for demand accesses
system.cpu.dcache.demand_mshr_miss_rate::total     0.007122                       # mshr miss rate for demand accesses
system.cpu.dcache.overall_mshr_miss_rate::cpu.data     0.007122                       # mshr miss rate for overall accesses
system.cpu.dcache.overall_mshr_miss_rate::total     0.007122                       # mshr miss rate for overall accesses
system.cpu.dcache.ReadReq_avg_mshr_miss_latency::cpu.data 26727.072234                       # average ReadReq mshr miss latency
system.cpu.dcache.ReadReq_avg_mshr_miss_latency::total 26727.072234                       # average ReadReq mshr miss latency
system.cpu.dcache.WriteReq_avg_mshr_miss_latency::cpu.data 62405.610725                       # average WriteReq mshr miss latency
system.cpu.dcache.WriteReq_avg_mshr_miss_latency::total 62405.610725                       # average WriteReq mshr miss latency
system.cpu.dcache.demand_avg_mshr_miss_latency::cpu.data 26956.897815                       # average overall mshr miss latency
system.cpu.dcache.demand_avg_mshr_miss_latency::total 26956.897815                       # average overall mshr miss latency
system.cpu.dcache.overall_avg_mshr_miss_latency::cpu.data 26956.897815                       # average overall mshr miss latency
system.cpu.dcache.overall_avg_mshr_miss_latency::total 26956.897815                       # average overall mshr miss latency
system.cpu.dcache.replacements                3126058                       # number of replacements
system.cpu.dtb_walker_cache.tags.pwrStateResidencyTicks::UNDEFINED 1945383173000                       # Cumulative time (in ticks) in various power states
system.cpu.dtb_walker_cache.tags.tagsinuse            0                       # Cycle average of tags in use
system.cpu.dtb_walker_cache.tags.total_refs            0                       # Total number of references to valid blocks.
system.cpu.dtb_walker_cache.tags.sampled_refs            0                       # Sample count of references to valid blocks.
system.cpu.dtb_walker_cache.tags.avg_refs          nan                       # Average number of references to valid blocks.
system.cpu.dtb_walker_cache.tags.warmup_cycle            0                       # Cycle when the warmup percentage was hit.
system.cpu.dtb_walker_cache.tags.tag_accesses            0                       # Number of tag accesses
system.cpu.dtb_walker_cache.tags.data_accesses            0                       # Number of data accesses
system.cpu.dtb_walker_cache.pwrStateResidencyTicks::UNDEFINED 1945383173000                       # Cumulative time (in ticks) in various power states
system.cpu.dtb_walker_cache.blocked_cycles::no_mshrs            0                       # number of cycles access was blocked
system.cpu.dtb_walker_cache.blocked_cycles::no_targets            0                       # number of cycles access was blocked
system.cpu.dtb_walker_cache.blocked::no_mshrs            0                       # number of cycles access was blocked
system.cpu.dtb_walker_cache.blocked::no_targets            0                       # number of cycles access was blocked
system.cpu.dtb_walker_cache.avg_blocked_cycles::no_mshrs          nan                       # average number of cycles each access was blocked
system.cpu.dtb_walker_cache.avg_blocked_cycles::no_targets          nan                       # average number of cycles each access was blocked
system.cpu.dtb_walker_cache.replacements            0                       # number of replacements
system.cpu.icache.tags.pwrStateResidencyTicks::UNDEFINED 1945383173000                       # Cumulative time (in ticks) in various power states
system.cpu.icache.tags.tagsinuse           281.935823                       # Cycle average of tags in use
system.cpu.icache.tags.total_refs          1422005638                       # Total number of references to valid blocks.
system.cpu.icache.tags.sampled_refs               355                       # Sample count of references to valid blocks.
system.cpu.icache.tags.avg_refs          4005649.684507                       # Average number of references to valid blocks.
system.cpu.icache.tags.warmup_cycle            445000                       # Cycle when the warmup percentage was hit.
system.cpu.icache.tags.occ_blocks::cpu.inst   281.935823                       # Average occupied blocks per requestor
system.cpu.icache.tags.occ_percent::cpu.inst     0.550656                       # Average percentage of cache occupancy
system.cpu.icache.tags.occ_percent::total     0.550656                       # Average percentage of cache occupancy
system.cpu.icache.tags.occ_task_id_blocks::1024          310                       # Occupied blocks per task id
system.cpu.icache.tags.age_task_id_blocks_1024::0           11                       # Occupied blocks per task id
system.cpu.icache.tags.age_task_id_blocks_1024::1           27                       # Occupied blocks per task id
system.cpu.icache.tags.age_task_id_blocks_1024::4          272                       # Occupied blocks per task id
system.cpu.icache.tags.occ_task_id_percent::1024     0.605469                       # Percentage of cache occupancy per task id
system.cpu.icache.tags.tag_accesses        2844011631                       # Number of tag accesses
system.cpu.icache.tags.data_accesses       2844011631                       # Number of data accesses
system.cpu.icache.pwrStateResidencyTicks::UNDEFINED 1945383173000                       # Cumulative time (in ticks) in various power states
system.cpu.icache.ReadReq_hits::cpu.inst   1422005283                       # number of ReadReq hits
system.cpu.icache.ReadReq_hits::total      1422005283                       # number of ReadReq hits
system.cpu.icache.demand_hits::cpu.inst    1422005283                       # number of demand (read+write) hits
system.cpu.icache.demand_hits::total       1422005283                       # number of demand (read+write) hits
system.cpu.icache.overall_hits::cpu.inst   1422005283                       # number of overall hits
system.cpu.icache.overall_hits::total      1422005283                       # number of overall hits
system.cpu.icache.ReadReq_misses::cpu.inst          355                       # number of ReadReq misses
system.cpu.icache.ReadReq_misses::total           355                       # number of ReadReq misses
system.cpu.icache.demand_misses::cpu.inst          355                       # number of demand (read+write) misses
system.cpu.icache.demand_misses::total            355                       # number of demand (read+write) misses
system.cpu.icache.overall_misses::cpu.inst          355                       # number of overall misses
system.cpu.icache.overall_misses::total           355                       # number of overall misses
system.cpu.icache.ReadReq_miss_latency::cpu.inst     68658000                       # number of ReadReq miss cycles
system.cpu.icache.ReadReq_miss_latency::total     68658000                       # number of ReadReq miss cycles
system.cpu.icache.demand_miss_latency::cpu.inst     68658000                       # number of demand (read+write) miss cycles
system.cpu.icache.demand_miss_latency::total     68658000                       # number of demand (read+write) miss cycles
system.cpu.icache.overall_miss_latency::cpu.inst     68658000                       # number of overall miss cycles
system.cpu.icache.overall_miss_latency::total     68658000                       # number of overall miss cycles
system.cpu.icache.ReadReq_accesses::cpu.inst   1422005638                       # number of ReadReq accesses(hits+misses)
system.cpu.icache.ReadReq_accesses::total   1422005638                       # number of ReadReq accesses(hits+misses)
system.cpu.icache.demand_accesses::cpu.inst   1422005638                       # number of demand (read+write) accesses
system.cpu.icache.demand_accesses::total   1422005638                       # number of demand (read+write) accesses
system.cpu.icache.overall_accesses::cpu.inst   1422005638                       # number of overall (read+write) accesses
system.cpu.icache.overall_accesses::total   1422005638                       # number of overall (read+write) accesses
system.cpu.icache.ReadReq_miss_rate::cpu.inst     0.000000                       # miss rate for ReadReq accesses
system.cpu.icache.ReadReq_miss_rate::total     0.000000                       # miss rate for ReadReq accesses
system.cpu.icache.demand_miss_rate::cpu.inst     0.000000                       # miss rate for demand accesses
system.cpu.icache.demand_miss_rate::total     0.000000                       # miss rate for demand accesses
system.cpu.icache.overall_miss_rate::cpu.inst     0.000000                       # miss rate for overall accesses
system.cpu.icache.overall_miss_rate::total     0.000000                       # miss rate for overall accesses
system.cpu.icache.ReadReq_avg_miss_latency::cpu.inst 193402.816901                       # average ReadReq miss latency
system.cpu.icache.ReadReq_avg_miss_latency::total 193402.816901                       # average ReadReq miss latency
system.cpu.icache.demand_avg_miss_latency::cpu.inst 193402.816901                       # average overall miss latency
system.cpu.icache.demand_avg_miss_latency::total 193402.816901                       # average overall miss latency
system.cpu.icache.overall_avg_miss_latency::cpu.inst 193402.816901                       # average overall miss latency
system.cpu.icache.overall_avg_miss_latency::total 193402.816901                       # average overall miss latency
system.cpu.icache.blocked_cycles::no_mshrs            0                       # number of cycles access was blocked
system.cpu.icache.blocked_cycles::no_targets            0                       # number of cycles access was blocked
system.cpu.icache.blocked::no_mshrs                 0                       # number of cycles access was blocked
system.cpu.icache.blocked::no_targets               0                       # number of cycles access was blocked
system.cpu.icache.avg_blocked_cycles::no_mshrs          nan                       # average number of cycles each access was blocked
system.cpu.icache.avg_blocked_cycles::no_targets          nan                       # average number of cycles each access was blocked
system.cpu.icache.writebacks::writebacks           45                       # number of writebacks
system.cpu.icache.writebacks::total                45                       # number of writebacks
system.cpu.icache.ReadReq_mshr_misses::cpu.inst          355                       # number of ReadReq MSHR misses
system.cpu.icache.ReadReq_mshr_misses::total          355                       # number of ReadReq MSHR misses
system.cpu.icache.demand_mshr_misses::cpu.inst          355                       # number of demand (read+write) MSHR misses
system.cpu.icache.demand_mshr_misses::total          355                       # number of demand (read+write) MSHR misses
system.cpu.icache.overall_mshr_misses::cpu.inst          355                       # number of overall MSHR misses
system.cpu.icache.overall_mshr_misses::total          355                       # number of overall MSHR misses
system.cpu.icache.ReadReq_mshr_miss_latency::cpu.inst     68303000                       # number of ReadReq MSHR miss cycles
system.cpu.icache.ReadReq_mshr_miss_latency::total     68303000                       # number of ReadReq MSHR miss cycles
system.cpu.icache.demand_mshr_miss_latency::cpu.inst     68303000                       # number of demand (read+write) MSHR miss cycles
system.cpu.icache.demand_mshr_miss_latency::total     68303000                       # number of demand (read+write) MSHR miss cycles
system.cpu.icache.overall_mshr_miss_latency::cpu.inst     68303000                       # number of overall MSHR miss cycles
system.cpu.icache.overall_mshr_miss_latency::total     68303000                       # number of overall MSHR miss cycles
system.cpu.icache.ReadReq_mshr_miss_rate::cpu.inst     0.000000                       # mshr miss rate for ReadReq accesses
system.cpu.icache.ReadReq_mshr_miss_rate::total     0.000000                       # mshr miss rate for ReadReq accesses
system.cpu.icache.demand_mshr_miss_rate::cpu.inst     0.000000                       # mshr miss rate for demand accesses
system.cpu.icache.demand_mshr_miss_rate::total     0.000000                       # mshr miss rate for demand accesses
system.cpu.icache.overall_mshr_miss_rate::cpu.inst     0.000000                       # mshr miss rate for overall accesses
system.cpu.icache.overall_mshr_miss_rate::total     0.000000                       # mshr miss rate for overall accesses
system.cpu.icache.ReadReq_avg_mshr_miss_latency::cpu.inst 192402.816901                       # average ReadReq mshr miss latency
system.cpu.icache.ReadReq_avg_mshr_miss_latency::total 192402.816901                       # average ReadReq mshr miss latency
system.cpu.icache.demand_avg_mshr_miss_latency::cpu.inst 192402.816901                       # average overall mshr miss latency
system.cpu.icache.demand_avg_mshr_miss_latency::total 192402.816901                       # average overall mshr miss latency
system.cpu.icache.overall_avg_mshr_miss_latency::cpu.inst 192402.816901                       # average overall mshr miss latency
system.cpu.icache.overall_avg_mshr_miss_latency::total 192402.816901                       # average overall mshr miss latency
system.cpu.icache.replacements                     45                       # number of replacements
system.cpu.itb_walker_cache.tags.pwrStateResidencyTicks::UNDEFINED 1945383173000                       # Cumulative time (in ticks) in various power states
system.cpu.itb_walker_cache.tags.tagsinuse            0                       # Cycle average of tags in use
system.cpu.itb_walker_cache.tags.total_refs            0                       # Total number of references to valid blocks.
system.cpu.itb_walker_cache.tags.sampled_refs            0                       # Sample count of references to valid blocks.
system.cpu.itb_walker_cache.tags.avg_refs          nan                       # Average number of references to valid blocks.
system.cpu.itb_walker_cache.tags.warmup_cycle            0                       # Cycle when the warmup percentage was hit.
system.cpu.itb_walker_cache.tags.tag_accesses            0                       # Number of tag accesses
system.cpu.itb_walker_cache.tags.data_accesses            0                       # Number of data accesses
system.cpu.itb_walker_cache.pwrStateResidencyTicks::UNDEFINED 1945383173000                       # Cumulative time (in ticks) in various power states
system.cpu.itb_walker_cache.blocked_cycles::no_mshrs            0                       # number of cycles access was blocked
system.cpu.itb_walker_cache.blocked_cycles::no_targets            0                       # number of cycles access was blocked
system.cpu.itb_walker_cache.blocked::no_mshrs            0                       # number of cycles access was blocked
system.cpu.itb_walker_cache.blocked::no_targets            0                       # number of cycles access was blocked
system.cpu.itb_walker_cache.avg_blocked_cycles::no_mshrs          nan                       # average number of cycles each access was blocked
system.cpu.itb_walker_cache.avg_blocked_cycles::no_targets          nan                       # average number of cycles each access was blocked
system.cpu.itb_walker_cache.replacements            0                       # number of replacements
system.l2.tags.pwrStateResidencyTicks::UNDEFINED 1945383173000                       # Cumulative time (in ticks) in various power states
system.l2.tags.tagsinuse                  2046.639588                       # Cycle average of tags in use
system.l2.tags.total_refs                     6253028                       # Total number of references to valid blocks.
system.l2.tags.sampled_refs                   1710866                       # Sample count of references to valid blocks.
system.l2.tags.avg_refs                      3.654891                       # Average number of references to valid blocks.
system.l2.tags.warmup_cycle                    434500                       # Cycle when the warmup percentage was hit.
system.l2.tags.occ_blocks::writebacks        0.006899                       # Average occupied blocks per requestor
system.l2.tags.occ_blocks::cpu.inst          0.508824                       # Average occupied blocks per requestor
system.l2.tags.occ_blocks::cpu.data       2046.123864                       # Average occupied blocks per requestor
system.l2.tags.occ_percent::writebacks       0.000003                       # Average percentage of cache occupancy
system.l2.tags.occ_percent::cpu.inst         0.000248                       # Average percentage of cache occupancy
system.l2.tags.occ_percent::cpu.data         0.999084                       # Average percentage of cache occupancy
system.l2.tags.occ_percent::total            0.999336                       # Average percentage of cache occupancy
system.l2.tags.occ_task_id_blocks::1024          2048                       # Occupied blocks per task id
system.l2.tags.age_task_id_blocks_1024::0           26                       # Occupied blocks per task id
system.l2.tags.age_task_id_blocks_1024::1           75                       # Occupied blocks per task id
system.l2.tags.age_task_id_blocks_1024::2          799                       # Occupied blocks per task id
system.l2.tags.age_task_id_blocks_1024::3         1147                       # Occupied blocks per task id
system.l2.tags.age_task_id_blocks_1024::4            1                       # Occupied blocks per task id
system.l2.tags.occ_task_id_percent::1024            1                       # Percentage of cache occupancy per task id
system.l2.tags.tag_accesses                  51735090                       # Number of tag accesses
system.l2.tags.data_accesses                 51735090                       # Number of data accesses
system.l2.pwrStateResidencyTicks::UNDEFINED 1945383173000                       # Cumulative time (in ticks) in various power states
system.l2.WritebackDirty_hits::writebacks      1433050                       # number of WritebackDirty hits
system.l2.WritebackDirty_hits::total          1433050                       # number of WritebackDirty hits
system.l2.WritebackClean_hits::writebacks           45                       # number of WritebackClean hits
system.l2.WritebackClean_hits::total               45                       # number of WritebackClean hits
system.l2.ReadExReq_hits::cpu.data               3145                       # number of ReadExReq hits
system.l2.ReadExReq_hits::total                  3145                       # number of ReadExReq hits
system.l2.ReadSharedReq_hits::cpu.data        1412932                       # number of ReadSharedReq hits
system.l2.ReadSharedReq_hits::total           1412932                       # number of ReadSharedReq hits
system.l2.demand_hits::cpu.data               1416077                       # number of demand (read+write) hits
system.l2.demand_hits::total                  1416077                       # number of demand (read+write) hits
system.l2.overall_hits::cpu.data              1416077                       # number of overall hits
system.l2.overall_hits::total                 1416077                       # number of overall hits
system.l2.ReadExReq_misses::cpu.data            16995                       # number of ReadExReq misses
system.l2.ReadExReq_misses::total               16995                       # number of ReadExReq misses
system.l2.ReadCleanReq_misses::cpu.inst           355                       # number of ReadCleanReq misses
system.l2.ReadCleanReq_misses::total              355                       # number of ReadCleanReq misses
system.l2.ReadSharedReq_misses::cpu.data      1693498                       # number of ReadSharedReq misses
system.l2.ReadSharedReq_misses::total         1693498                       # number of ReadSharedReq misses
system.l2.demand_misses::cpu.inst                 355                       # number of demand (read+write) misses
system.l2.demand_misses::cpu.data             1710493                       # number of demand (read+write) misses
system.l2.demand_misses::total                1710848                       # number of demand (read+write) misses
system.l2.overall_misses::cpu.inst                355                       # number of overall misses
system.l2.overall_misses::cpu.data            1710493                       # number of overall misses
system.l2.overall_misses::total               1710848                       # number of overall misses
system.l2.ReadExReq_miss_latency::cpu.data   1193616000                       # number of ReadExReq miss cycles
system.l2.ReadExReq_miss_latency::total    1193616000                       # number of ReadExReq miss cycles
system.l2.ReadCleanReq_miss_latency::cpu.inst     67768500                       # number of ReadCleanReq miss cycles
system.l2.ReadCleanReq_miss_latency::total     67768500                       # number of ReadCleanReq miss cycles
system.l2.ReadSharedReq_miss_latency::cpu.data  63530348000                       # number of ReadSharedReq miss cycles
system.l2.ReadSharedReq_miss_latency::total  63530348000                       # number of ReadSharedReq miss cycles
system.l2.demand_miss_latency::cpu.inst      67768500                       # number of demand (read+write) miss cycles
system.l2.demand_miss_latency::cpu.data   64723964000                       # number of demand (read+write) miss cycles
system.l2.demand_miss_latency::total      64791732500                       # number of demand (read+write) miss cycles
system.l2.overall_miss_latency::cpu.inst     67768500                       # number of overall miss cycles
system.l2.overall_miss_latency::cpu.data  64723964000                       # number of overall miss cycles
system.l2.overall_miss_latency::total     64791732500                       # number of overall miss cycles
system.l2.WritebackDirty_accesses::writebacks      1433050                       # number of WritebackDirty accesses(hits+misses)
system.l2.WritebackDirty_accesses::total      1433050                       # number of WritebackDirty accesses(hits+misses)
system.l2.WritebackClean_accesses::writebacks           45                       # number of WritebackClean accesses(hits+misses)
system.l2.WritebackClean_accesses::total           45                       # number of WritebackClean accesses(hits+misses)
system.l2.ReadExReq_accesses::cpu.data          20140                       # number of ReadExReq accesses(hits+misses)
system.l2.ReadExReq_accesses::total             20140                       # number of ReadExReq accesses(hits+misses)
system.l2.ReadCleanReq_accesses::cpu.inst          355                       # number of ReadCleanReq accesses(hits+misses)
system.l2.ReadCleanReq_accesses::total            355                       # number of ReadCleanReq accesses(hits+misses)
system.l2.ReadSharedReq_accesses::cpu.data      3106430                       # number of ReadSharedReq accesses(hits+misses)
system.l2.ReadSharedReq_accesses::total       3106430                       # number of ReadSharedReq accesses(hits+misses)
system.l2.demand_accesses::cpu.inst               355                       # number of demand (read+write) accesses
system.l2.demand_accesses::cpu.data           3126570                       # number of demand (read+write) accesses
system.l2.demand_accesses::total              3126925                       # number of demand (read+write) accesses
system.l2.overall_accesses::cpu.inst              355                       # number of overall (read+write) accesses
system.l2.overall_accesses::cpu.data          3126570                       # number of overall (read+write) accesses
system.l2.overall_accesses::total             3126925                       # number of overall (read+write) accesses
system.l2.ReadExReq_miss_rate::cpu.data      0.843843                       # miss rate for ReadExReq accesses
system.l2.ReadExReq_miss_rate::total         0.843843                       # miss rate for ReadExReq accesses
system.l2.ReadCleanReq_miss_rate::cpu.inst            1                       # miss rate for ReadCleanReq accesses
system.l2.ReadCleanReq_miss_rate::total             1                       # miss rate for ReadCleanReq accesses
system.l2.ReadSharedReq_miss_rate::cpu.data     0.545159                       # miss rate for ReadSharedReq accesses
system.l2.ReadSharedReq_miss_rate::total     0.545159                       # miss rate for ReadSharedReq accesses
system.l2.demand_miss_rate::cpu.inst                1                       # miss rate for demand accesses
system.l2.demand_miss_rate::cpu.data         0.547083                       # miss rate for demand accesses
system.l2.demand_miss_rate::total            0.547134                       # miss rate for demand accesses
system.l2.overall_miss_rate::cpu.inst               1                       # miss rate for overall accesses
system.l2.overall_miss_rate::cpu.data        0.547083                       # miss rate for overall accesses
system.l2.overall_miss_rate::total           0.547134                       # miss rate for overall accesses
system.l2.ReadExReq_avg_miss_latency::cpu.data 70233.362754                       # average ReadExReq miss latency
system.l2.ReadExReq_avg_miss_latency::total 70233.362754                       # average ReadExReq miss latency
system.l2.ReadCleanReq_avg_miss_latency::cpu.inst 190897.183099                       # average ReadCleanReq miss latency
system.l2.ReadCleanReq_avg_miss_latency::total 190897.183099                       # average ReadCleanReq miss latency
system.l2.ReadSharedReq_avg_miss_latency::cpu.data 37514.274006                       # average ReadSharedReq miss latency
system.l2.ReadSharedReq_avg_miss_latency::total 37514.274006                       # average ReadSharedReq miss latency
system.l2.demand_avg_miss_latency::cpu.inst 190897.183099                       # average overall miss latency
system.l2.demand_avg_miss_latency::cpu.data 37839.362102                       # average overall miss latency
system.l2.demand_avg_miss_latency::total 37871.121514                       # average overall miss latency
system.l2.overall_avg_miss_latency::cpu.inst 190897.183099                       # average overall miss latency
system.l2.overall_avg_miss_latency::cpu.data 37839.362102                       # average overall miss latency
system.l2.overall_avg_miss_latency::total 37871.121514                       # average overall miss latency
system.l2.blocked_cycles::no_mshrs                  0                       # number of cycles access was blocked
system.l2.blocked_cycles::no_targets                0                       # number of cycles access was blocked
system.l2.blocked::no_mshrs                         0                       # number of cycles access was blocked
system.l2.blocked::no_targets                       0                       # number of cycles access was blocked
system.l2.avg_blocked_cycles::no_mshrs            nan                       # average number of cycles each access was blocked
system.l2.avg_blocked_cycles::no_targets          nan                       # average number of cycles each access was blocked
system.l2.writebacks::writebacks              1708427                       # number of writebacks
system.l2.writebacks::total                   1708427                       # number of writebacks
system.l2.ReadExReq_mshr_misses::cpu.data        16995                       # number of ReadExReq MSHR misses
system.l2.ReadExReq_mshr_misses::total          16995                       # number of ReadExReq MSHR misses
system.l2.ReadCleanReq_mshr_misses::cpu.inst          355                       # number of ReadCleanReq MSHR misses
system.l2.ReadCleanReq_mshr_misses::total          355                       # number of ReadCleanReq MSHR misses
system.l2.ReadSharedReq_mshr_misses::cpu.data      1693498                       # number of ReadSharedReq MSHR misses
system.l2.ReadSharedReq_mshr_misses::total      1693498                       # number of ReadSharedReq MSHR misses
system.l2.demand_mshr_misses::cpu.inst            355                       # number of demand (read+write) MSHR misses
system.l2.demand_mshr_misses::cpu.data        1710493                       # number of demand (read+write) MSHR misses
system.l2.demand_mshr_misses::total           1710848                       # number of demand (read+write) MSHR misses
system.l2.overall_mshr_misses::cpu.inst           355                       # number of overall MSHR misses
system.l2.overall_mshr_misses::cpu.data       1710493                       # number of overall MSHR misses
system.l2.overall_mshr_misses::total          1710848                       # number of overall MSHR misses
system.l2.ReadExReq_mshr_miss_latency::cpu.data   1023666000                       # number of ReadExReq MSHR miss cycles
system.l2.ReadExReq_mshr_miss_latency::total   1023666000                       # number of ReadExReq MSHR miss cycles
system.l2.ReadCleanReq_mshr_miss_latency::cpu.inst     64218500                       # number of ReadCleanReq MSHR miss cycles
system.l2.ReadCleanReq_mshr_miss_latency::total     64218500                       # number of ReadCleanReq MSHR miss cycles
system.l2.ReadSharedReq_mshr_miss_latency::cpu.data  46595368000                       # number of ReadSharedReq MSHR miss cycles
system.l2.ReadSharedReq_mshr_miss_latency::total  46595368000                       # number of ReadSharedReq MSHR miss cycles
system.l2.demand_mshr_miss_latency::cpu.inst     64218500                       # number of demand (read+write) MSHR miss cycles
system.l2.demand_mshr_miss_latency::cpu.data  47619034000                       # number of demand (read+write) MSHR miss cycles
system.l2.demand_mshr_miss_latency::total  47683252500                       # number of demand (read+write) MSHR miss cycles
system.l2.overall_mshr_miss_latency::cpu.inst     64218500                       # number of overall MSHR miss cycles
system.l2.overall_mshr_miss_latency::cpu.data  47619034000                       # number of overall MSHR miss cycles
system.l2.overall_mshr_miss_latency::total  47683252500                       # number of overall MSHR miss cycles
system.l2.ReadExReq_mshr_miss_rate::cpu.data     0.843843                       # mshr miss rate for ReadExReq accesses
system.l2.ReadExReq_mshr_miss_rate::total     0.843843                       # mshr miss rate for ReadExReq accesses
system.l2.ReadCleanReq_mshr_miss_rate::cpu.inst            1                       # mshr miss rate for ReadCleanReq accesses
system.l2.ReadCleanReq_mshr_miss_rate::total            1                       # mshr miss rate for ReadCleanReq accesses
system.l2.ReadSharedReq_mshr_miss_rate::cpu.data     0.545159                       # mshr miss rate for ReadSharedReq accesses
system.l2.ReadSharedReq_mshr_miss_rate::total     0.545159                       # mshr miss rate for ReadSharedReq accesses
system.l2.demand_mshr_miss_rate::cpu.inst            1                       # mshr miss rate for demand accesses
system.l2.demand_mshr_miss_rate::cpu.data     0.547083                       # mshr miss rate for demand accesses
system.l2.demand_mshr_miss_rate::total       0.547134                       # mshr miss rate for demand accesses
system.l2.overall_mshr_miss_rate::cpu.inst            1                       # mshr miss rate for overall accesses
system.l2.overall_mshr_miss_rate::cpu.data     0.547083                       # mshr miss rate for overall accesses
system.l2.overall_mshr_miss_rate::total      0.547134                       # mshr miss rate for overall accesses
system.l2.ReadExReq_avg_mshr_miss_latency::cpu.data 60233.362754                       # average ReadExReq mshr miss latency
system.l2.ReadExReq_avg_mshr_miss_latency::total 60233.362754                       # average ReadExReq mshr miss latency
system.l2.ReadCleanReq_avg_mshr_miss_latency::cpu.inst 180897.183099                       # average ReadCleanReq mshr miss latency
system.l2.ReadCleanReq_avg_mshr_miss_latency::total 180897.183099                       # average ReadCleanReq mshr miss latency
system.l2.ReadSharedReq_avg_mshr_miss_latency::cpu.data 27514.274006                       # average ReadSharedReq mshr miss latency
system.l2.ReadSharedReq_avg_mshr_miss_latency::total 27514.274006                       # average ReadSharedReq mshr miss latency
system.l2.demand_avg_mshr_miss_latency::cpu.inst 180897.183099                       # average overall mshr miss latency
system.l2.demand_avg_mshr_miss_latency::cpu.data 27839.362102                       # average overall mshr miss latency
system.l2.demand_avg_mshr_miss_latency::total 27871.121514                       # average overall mshr miss latency
system.l2.overall_avg_mshr_miss_latency::cpu.inst 180897.183099                       # average overall mshr miss latency
system.l2.overall_avg_mshr_miss_latency::cpu.data 27839.362102                       # average overall mshr miss latency
system.l2.overall_avg_mshr_miss_latency::total 27871.121514                       # average overall mshr miss latency
system.l2.replacements                        1708818                       # number of replacements
system.l3.tags.pwrStateResidencyTicks::UNDEFINED 1945383173000                       # Cumulative time (in ticks) in various power states
system.l3.tags.tagsinuse                 14224.892740                       # Cycle average of tags in use
system.l3.tags.total_refs                     3419375                       # Total number of references to valid blocks.
system.l3.tags.sampled_refs                     17458                       # Sample count of references to valid blocks.
system.l3.tags.avg_refs                    195.862928                       # Average number of references to valid blocks.
system.l3.tags.warmup_cycle                    418000                       # Cycle when the warmup percentage was hit.
system.l3.tags.occ_blocks::cpu.inst        142.327720                       # Average occupied blocks per requestor
system.l3.tags.occ_blocks::cpu.data      14082.565020                       # Average occupied blocks per requestor
system.l3.tags.occ_percent::cpu.inst         0.008687                       # Average percentage of cache occupancy
system.l3.tags.occ_percent::cpu.data         0.859532                       # Average percentage of cache occupancy
system.l3.tags.occ_percent::total            0.868219                       # Average percentage of cache occupancy
system.l3.tags.occ_task_id_blocks::1024         16384                       # Occupied blocks per task id
system.l3.tags.age_task_id_blocks_1024::0           21                       # Occupied blocks per task id
system.l3.tags.age_task_id_blocks_1024::1           41                       # Occupied blocks per task id
system.l3.tags.age_task_id_blocks_1024::2            3                       # Occupied blocks per task id
system.l3.tags.age_task_id_blocks_1024::3           26                       # Occupied blocks per task id
system.l3.tags.age_task_id_blocks_1024::4        16293                       # Occupied blocks per task id
system.l3.tags.occ_task_id_percent::1024            1                       # Percentage of cache occupancy per task id
system.l3.tags.tag_accesses                  13694958                       # Number of tag accesses
system.l3.tags.data_accesses                 13694958                       # Number of data accesses
system.l3.pwrStateResidencyTicks::UNDEFINED 1945383173000                       # Cumulative time (in ticks) in various power states
system.l3.WritebackDirty_hits::writebacks      1708427                       # number of WritebackDirty hits
system.l3.WritebackDirty_hits::total          1708427                       # number of WritebackDirty hits
system.l3.ReadExReq_hits::cpu.data                  1                       # number of ReadExReq hits
system.l3.ReadExReq_hits::total                     1                       # number of ReadExReq hits
system.l3.ReadSharedReq_hits::cpu.data        1693389                       # number of ReadSharedReq hits
system.l3.ReadSharedReq_hits::total           1693389                       # number of ReadSharedReq hits
system.l3.demand_hits::cpu.data               1693390                       # number of demand (read+write) hits
system.l3.demand_hits::total                  1693390                       # number of demand (read+write) hits
system.l3.overall_hits::cpu.data              1693390                       # number of overall hits
system.l3.overall_hits::total                 1693390                       # number of overall hits
system.l3.ReadExReq_misses::cpu.data            16994                       # number of ReadExReq misses
system.l3.ReadExReq_misses::total               16994                       # number of ReadExReq misses
system.l3.ReadSharedReq_misses::cpu.inst          355                       # number of ReadSharedReq misses
system.l3.ReadSharedReq_misses::cpu.data          109                       # number of ReadSharedReq misses
system.l3.ReadSharedReq_misses::total             464                       # number of ReadSharedReq misses
system.l3.demand_misses::cpu.inst                 355                       # number of demand (read+write) misses
system.l3.demand_misses::cpu.data               17103                       # number of demand (read+write) misses
system.l3.demand_misses::total                  17458                       # number of demand (read+write) misses
system.l3.overall_misses::cpu.inst                355                       # number of overall misses
system.l3.overall_misses::cpu.data              17103                       # number of overall misses
system.l3.overall_misses::total                 17458                       # number of overall misses
system.l3.ReadExReq_miss_latency::cpu.data    836704500                       # number of ReadExReq miss cycles
system.l3.ReadExReq_miss_latency::total     836704500                       # number of ReadExReq miss cycles
system.l3.ReadSharedReq_miss_latency::cpu.inst     60313500                       # number of ReadSharedReq miss cycles
system.l3.ReadSharedReq_miss_latency::cpu.data     25971500                       # number of ReadSharedReq miss cycles
system.l3.ReadSharedReq_miss_latency::total     86285000                       # number of ReadSharedReq miss cycles
system.l3.demand_miss_latency::cpu.inst      60313500                       # number of demand (read+write) miss cycles
system.l3.demand_miss_latency::cpu.data     862676000                       # number of demand (read+write) miss cycles
system.l3.demand_miss_latency::total        922989500                       # number of demand (read+write) miss cycles
system.l3.overall_miss_latency::cpu.inst     60313500                       # number of overall miss cycles
system.l3.overall_miss_latency::cpu.data    862676000                       # number of overall miss cycles
system.l3.overall_miss_latency::total       922989500                       # number of overall miss cycles
system.l3.WritebackDirty_accesses::writebacks      1708427                       # number of WritebackDirty accesses(hits+misses)
system.l3.WritebackDirty_accesses::total      1708427                       # number of WritebackDirty accesses(hits+misses)
system.l3.ReadExReq_accesses::cpu.data          16995                       # number of ReadExReq accesses(hits+misses)
system.l3.ReadExReq_accesses::total             16995                       # number of ReadExReq accesses(hits+misses)
system.l3.ReadSharedReq_accesses::cpu.inst          355                       # number of ReadSharedReq accesses(hits+misses)
system.l3.ReadSharedReq_accesses::cpu.data      1693498                       # number of ReadSharedReq accesses(hits+misses)
system.l3.ReadSharedReq_accesses::total       1693853                       # number of ReadSharedReq accesses(hits+misses)
system.l3.demand_accesses::cpu.inst               355                       # number of demand (read+write) accesses
system.l3.demand_accesses::cpu.data           1710493                       # number of demand (read+write) accesses
system.l3.demand_accesses::total              1710848                       # number of demand (read+write) accesses
system.l3.overall_accesses::cpu.inst              355                       # number of overall (read+write) accesses
system.l3.overall_accesses::cpu.data          1710493                       # number of overall (read+write) accesses
system.l3.overall_accesses::total             1710848                       # number of overall (read+write) accesses
system.l3.ReadExReq_miss_rate::cpu.data      0.999941                       # miss rate for ReadExReq accesses
system.l3.ReadExReq_miss_rate::total         0.999941                       # miss rate for ReadExReq accesses
system.l3.ReadSharedReq_miss_rate::cpu.inst            1                       # miss rate for ReadSharedReq accesses
system.l3.ReadSharedReq_miss_rate::cpu.data     0.000064                       # miss rate for ReadSharedReq accesses
system.l3.ReadSharedReq_miss_rate::total     0.000274                       # miss rate for ReadSharedReq accesses
system.l3.demand_miss_rate::cpu.inst                1                       # miss rate for demand accesses
system.l3.demand_miss_rate::cpu.data         0.009999                       # miss rate for demand accesses
system.l3.demand_miss_rate::total            0.010204                       # miss rate for demand accesses
system.l3.overall_miss_rate::cpu.inst               1                       # miss rate for overall accesses
system.l3.overall_miss_rate::cpu.data        0.009999                       # miss rate for overall accesses
system.l3.overall_miss_rate::total           0.010204                       # miss rate for overall accesses
system.l3.ReadExReq_avg_miss_latency::cpu.data 49235.288926                       # average ReadExReq miss latency
system.l3.ReadExReq_avg_miss_latency::total 49235.288926                       # average ReadExReq miss latency
system.l3.ReadSharedReq_avg_miss_latency::cpu.inst 169897.183099                       # average ReadSharedReq miss latency
system.l3.ReadSharedReq_avg_miss_latency::cpu.data 238270.642202                       # average ReadSharedReq miss latency
system.l3.ReadSharedReq_avg_miss_latency::total 185959.051724                       # average ReadSharedReq miss latency
system.l3.demand_avg_miss_latency::cpu.inst 169897.183099                       # average overall miss latency
system.l3.demand_avg_miss_latency::cpu.data 50440.039759                       # average overall miss latency
system.l3.demand_avg_miss_latency::total 52869.143086                       # average overall miss latency
system.l3.overall_avg_miss_latency::cpu.inst 169897.183099                       # average overall miss latency
system.l3.overall_avg_miss_latency::cpu.data 50440.039759                       # average overall miss latency
system.l3.overall_avg_miss_latency::total 52869.143086                       # average overall miss latency
system.l3.blocked_cycles::no_mshrs                  0                       # number of cycles access was blocked
system.l3.blocked_cycles::no_targets                0                       # number of cycles access was blocked
system.l3.blocked::no_mshrs                         0                       # number of cycles access was blocked
system.l3.blocked::no_targets                       0                       # number of cycles access was blocked
system.l3.avg_blocked_cycles::no_mshrs            nan                       # average number of cycles each access was blocked
system.l3.avg_blocked_cycles::no_targets          nan                       # average number of cycles each access was blocked
system.l3.writebacks::writebacks                  691                       # number of writebacks
system.l3.writebacks::total                       691                       # number of writebacks
system.l3.ReadExReq_mshr_misses::cpu.data        16994                       # number of ReadExReq MSHR misses
system.l3.ReadExReq_mshr_misses::total          16994                       # number of ReadExReq MSHR misses
system.l3.ReadSharedReq_mshr_misses::cpu.inst          355                       # number of ReadSharedReq MSHR misses
system.l3.ReadSharedReq_mshr_misses::cpu.data          109                       # number of ReadSharedReq MSHR misses
system.l3.ReadSharedReq_mshr_misses::total          464                       # number of ReadSharedReq MSHR misses
system.l3.demand_mshr_misses::cpu.inst            355                       # number of demand (read+write) MSHR misses
system.l3.demand_mshr_misses::cpu.data          17103                       # number of demand (read+write) MSHR misses
system.l3.demand_mshr_misses::total             17458                       # number of demand (read+write) MSHR misses
system.l3.overall_mshr_misses::cpu.inst           355                       # number of overall MSHR misses
system.l3.overall_mshr_misses::cpu.data         17103                       # number of overall MSHR misses
system.l3.overall_mshr_misses::total            17458                       # number of overall MSHR misses
system.l3.ReadExReq_mshr_miss_latency::cpu.data    564800500                       # number of ReadExReq MSHR miss cycles
system.l3.ReadExReq_mshr_miss_latency::total    564800500                       # number of ReadExReq MSHR miss cycles
system.l3.ReadSharedReq_mshr_miss_latency::cpu.inst     54633500                       # number of ReadSharedReq MSHR miss cycles
system.l3.ReadSharedReq_mshr_miss_latency::cpu.data     24227500                       # number of ReadSharedReq MSHR miss cycles
system.l3.ReadSharedReq_mshr_miss_latency::total     78861000                       # number of ReadSharedReq MSHR miss cycles
system.l3.demand_mshr_miss_latency::cpu.inst     54633500                       # number of demand (read+write) MSHR miss cycles
system.l3.demand_mshr_miss_latency::cpu.data    589028000                       # number of demand (read+write) MSHR miss cycles
system.l3.demand_mshr_miss_latency::total    643661500                       # number of demand (read+write) MSHR miss cycles
system.l3.overall_mshr_miss_latency::cpu.inst     54633500                       # number of overall MSHR miss cycles
system.l3.overall_mshr_miss_latency::cpu.data    589028000                       # number of overall MSHR miss cycles
system.l3.overall_mshr_miss_latency::total    643661500                       # number of overall MSHR miss cycles
system.l3.ReadExReq_mshr_miss_rate::cpu.data     0.999941                       # mshr miss rate for ReadExReq accesses
system.l3.ReadExReq_mshr_miss_rate::total     0.999941                       # mshr miss rate for ReadExReq accesses
system.l3.ReadSharedReq_mshr_miss_rate::cpu.inst            1                       # mshr miss rate for ReadSharedReq accesses
system.l3.ReadSharedReq_mshr_miss_rate::cpu.data     0.000064                       # mshr miss rate for ReadSharedReq accesses
system.l3.ReadSharedReq_mshr_miss_rate::total     0.000274                       # mshr miss rate for ReadSharedReq accesses
system.l3.demand_mshr_miss_rate::cpu.inst            1                       # mshr miss rate for demand accesses
system.l3.demand_mshr_miss_rate::cpu.data     0.009999                       # mshr miss rate for demand accesses
system.l3.demand_mshr_miss_rate::total       0.010204                       # mshr miss rate for demand accesses
system.l3.overall_mshr_miss_rate::cpu.inst            1                       # mshr miss rate for overall accesses
system.l3.overall_mshr_miss_rate::cpu.data     0.009999                       # mshr miss rate for overall accesses
system.l3.overall_mshr_miss_rate::total      0.010204                       # mshr miss rate for overall accesses
system.l3.ReadExReq_avg_mshr_miss_latency::cpu.data 33235.288926                       # average ReadExReq mshr miss latency
system.l3.ReadExReq_avg_mshr_miss_latency::total 33235.288926                       # average ReadExReq mshr miss latency
system.l3.ReadSharedReq_avg_mshr_miss_latency::cpu.inst 153897.183099                       # average ReadSharedReq mshr miss latency
system.l3.ReadSharedReq_avg_mshr_miss_latency::cpu.data 222270.642202                       # average ReadSharedReq mshr miss latency
system.l3.ReadSharedReq_avg_mshr_miss_latency::total 169959.051724                       # average ReadSharedReq mshr miss latency
system.l3.demand_avg_mshr_miss_latency::cpu.inst 153897.183099                       # average overall mshr miss latency
system.l3.demand_avg_mshr_miss_latency::cpu.data 34440.039759                       # average overall mshr miss latency
system.l3.demand_avg_mshr_miss_latency::total 36869.143086                       # average overall mshr miss latency
system.l3.overall_avg_mshr_miss_latency::cpu.inst 153897.183099                       # average overall mshr miss latency
system.l3.overall_avg_mshr_miss_latency::cpu.data 34440.039759                       # average overall mshr miss latency
system.l3.overall_avg_mshr_miss_latency::total 36869.143086                       # average overall mshr miss latency
system.l3.replacements                           1074                       # number of replacements
system.membus.snoop_filter.tot_requests         18249                       # Total number of requests made to the snoop filter.
system.membus.snoop_filter.hit_single_requests          791                       # Number of requests hitting in the snoop filter with a single holder of the requested data.
system.membus.snoop_filter.hit_multi_requests            0                       # Number of requests hitting in the snoop filter with multiple (>1) holders of the requested data.
system.membus.snoop_filter.tot_snoops               0                       # Total number of snoops made to the snoop filter.
system.membus.snoop_filter.hit_single_snoops            0                       # Number of snoops hitting in the snoop filter with a single holder of the requested data.
system.membus.snoop_filter.hit_multi_snoops            0                       # Number of snoops hitting in the snoop filter with multiple (>1) holders of the requested data.
system.membus.pwrStateResidencyTicks::UNDEFINED 1945383173000                       # Cumulative time (in ticks) in various power states
system.membus.trans_dist::ReadResp                464                       # Transaction distribution
system.membus.trans_dist::WritebackDirty          691                       # Transaction distribution
system.membus.trans_dist::CleanEvict              100                       # Transaction distribution
system.membus.trans_dist::ReadExReq             16994                       # Transaction distribution
system.membus.trans_dist::ReadExResp            16994                       # Transaction distribution
system.membus.trans_dist::ReadSharedReq           464                       # Transaction distribution
system.membus.pkt_count_system.l3.mem_side::system.mem_ctrls.port        35707                       # Packet count per connected master and slave (bytes)
system.membus.pkt_count_system.l3.mem_side::total        35707                       # Packet count per connected master and slave (bytes)
system.membus.pkt_count::total                  35707                       # Packet count per connected master and slave (bytes)
system.membus.pkt_size_system.l3.mem_side::system.mem_ctrls.port      1161536                       # Cumulative packet size per connected master and slave (bytes)
system.membus.pkt_size_system.l3.mem_side::total      1161536                       # Cumulative packet size per connected master and slave (bytes)
system.membus.pkt_size::total                 1161536                       # Cumulative packet size per connected master and slave (bytes)
system.membus.snoops                                0                       # Total snoops (count)
system.membus.snoopTraffic                          0                       # Total snoop traffic (bytes)
system.membus.snoop_fanout::samples             17458                       # Request fanout histogram
system.membus.snoop_fanout::mean                    0                       # Request fanout histogram
system.membus.snoop_fanout::stdev                   0                       # Request fanout histogram
system.membus.snoop_fanout::underflows              0      0.00%      0.00% # Request fanout histogram
system.membus.snoop_fanout::0                   17458    100.00%    100.00% # Request fanout histogram
system.membus.snoop_fanout::1                       0      0.00%    100.00% # Request fanout histogram
system.membus.snoop_fanout::overflows               0      0.00%    100.00% # Request fanout histogram
system.membus.snoop_fanout::min_value               0                       # Request fanout histogram
system.membus.snoop_fanout::max_value               0                       # Request fanout histogram
system.membus.snoop_fanout::total               17458                       # Request fanout histogram
system.membus.reqLayer2.occupancy            21015500                       # Layer occupancy (ticks)
system.membus.reqLayer2.utilization               0.0                       # Layer utilization (%)
system.membus.respLayer1.occupancy           87292500                       # Layer occupancy (ticks)
system.membus.respLayer1.utilization              0.0                       # Layer utilization (%)
system.tol2bus.snoop_filter.tot_requests      6253028                       # Total number of requests made to the snoop filter.
system.tol2bus.snoop_filter.hit_single_requests      3126103                       # Number of requests hitting in the snoop filter with a single holder of the requested data.
system.tol2bus.snoop_filter.hit_multi_requests            0                       # Number of requests hitting in the snoop filter with multiple (>1) holders of the requested data.
system.tol2bus.snoop_filter.tot_snoops            574                       # Total number of snoops made to the snoop filter.
system.tol2bus.snoop_filter.hit_single_snoops          574                       # Number of snoops hitting in the snoop filter with a single holder of the requested data.
system.tol2bus.snoop_filter.hit_multi_snoops            0                       # Number of snoops hitting in the snoop filter with multiple (>1) holders of the requested data.
system.tol2bus.pwrStateResidencyTicks::UNDEFINED 1945383173000                       # Cumulative time (in ticks) in various power states
system.tol2bus.trans_dist::ReadResp           3106785                       # Transaction distribution
system.tol2bus.trans_dist::WritebackDirty      3142168                       # Transaction distribution
system.tol2bus.trans_dist::WritebackClean           45                       # Transaction distribution
system.tol2bus.trans_dist::CleanEvict         1693782                       # Transaction distribution
system.tol2bus.trans_dist::ReadExReq            20140                       # Transaction distribution
system.tol2bus.trans_dist::ReadExResp           20140                       # Transaction distribution
system.tol2bus.trans_dist::ReadCleanReq           355                       # Transaction distribution
system.tol2bus.trans_dist::ReadSharedReq      3106430                       # Transaction distribution
system.tol2bus.pkt_count_system.cpu.icache.mem_side::system.l2.cpu_side          755                       # Packet count per connected master and slave (bytes)
system.tol2bus.pkt_count_system.cpu.dcache.mem_side::system.l2.cpu_side      9379198                       # Packet count per connected master and slave (bytes)
system.tol2bus.pkt_count::total               9379953                       # Packet count per connected master and slave (bytes)
system.tol2bus.pkt_size_system.cpu.icache.mem_side::system.l2.cpu_side        25600                       # Cumulative packet size per connected master and slave (bytes)
system.tol2bus.pkt_size_system.cpu.dcache.mem_side::system.l2.cpu_side    291815680                       # Cumulative packet size per connected master and slave (bytes)
system.tol2bus.pkt_size::total              291841280                       # Cumulative packet size per connected master and slave (bytes)
system.tol2bus.snoops                         1709892                       # Total snoops (count)
system.tol2bus.snoopTraffic                 109383552                       # Total snoop traffic (bytes)
system.tol2bus.snoop_fanout::samples          4836817                       # Request fanout histogram
system.tol2bus.snoop_fanout::mean            0.000119                       # Request fanout histogram
system.tol2bus.snoop_fanout::stdev           0.010893                       # Request fanout histogram
system.tol2bus.snoop_fanout::underflows             0      0.00%      0.00% # Request fanout histogram
system.tol2bus.snoop_fanout::0                4836243     99.99%     99.99% # Request fanout histogram
system.tol2bus.snoop_fanout::1                    574      0.01%    100.00% # Request fanout histogram
system.tol2bus.snoop_fanout::2                      0      0.00%    100.00% # Request fanout histogram
system.tol2bus.snoop_fanout::3                      0      0.00%    100.00% # Request fanout histogram
system.tol2bus.snoop_fanout::4                      0      0.00%    100.00% # Request fanout histogram
system.tol2bus.snoop_fanout::overflows              0      0.00%    100.00% # Request fanout histogram
system.tol2bus.snoop_fanout::min_value              0                       # Request fanout histogram
system.tol2bus.snoop_fanout::max_value              1                       # Request fanout histogram
system.tol2bus.snoop_fanout::total            4836817                       # Request fanout histogram
system.tol2bus.reqLayer0.occupancy         4559609000                       # Layer occupancy (ticks)
system.tol2bus.reqLayer0.utilization              0.2                       # Layer utilization (%)
system.tol2bus.respLayer0.occupancy            532500                       # Layer occupancy (ticks)
system.tol2bus.respLayer0.utilization             0.0                       # Layer utilization (%)
system.tol2bus.respLayer1.occupancy        4689855000                       # Layer occupancy (ticks)
system.tol2bus.respLayer1.utilization             0.2                       # Layer utilization (%)
system.tol3bus.pwrStateResidencyTicks::UNDEFINED 1945383173000                       # Cumulative time (in ticks) in various power states
system.tol3bus.trans_dist::ReadResp           1693853                       # Transaction distribution
system.tol3bus.trans_dist::WritebackDirty      1709118                       # Transaction distribution
system.tol3bus.trans_dist::CleanEvict             483                       # Transaction distribution
system.tol3bus.trans_dist::ReadExReq            16995                       # Transaction distribution
system.tol3bus.trans_dist::ReadExResp           16995                       # Transaction distribution
system.tol3bus.trans_dist::ReadSharedReq      1693853                       # Transaction distribution
system.tol3bus.pkt_count_system.l2.mem_side::system.l3.cpu_side      5130223                       # Packet count per connected master and slave (bytes)
system.tol3bus.pkt_size_system.l2.mem_side::system.l3.cpu_side    218833600                       # Cumulative packet size per connected master and slave (bytes)
system.tol3bus.snoops                            1074                       # Total snoops (count)
system.tol3bus.snoopTraffic                     44224                       # Total snoop traffic (bytes)
system.tol3bus.snoop_fanout::samples          3420449                       # Request fanout histogram
system.tol3bus.snoop_fanout::mean            0.000314                       # Request fanout histogram
system.tol3bus.snoop_fanout::stdev           0.017717                       # Request fanout histogram
system.tol3bus.snoop_fanout::underflows             0      0.00%      0.00% # Request fanout histogram
system.tol3bus.snoop_fanout::0                3419375     99.97%     99.97% # Request fanout histogram
system.tol3bus.snoop_fanout::1                   1074      0.03%    100.00% # Request fanout histogram
system.tol3bus.snoop_fanout::overflows              0      0.00%    100.00% # Request fanout histogram
system.tol3bus.snoop_fanout::min_value              0                       # Request fanout histogram
system.tol3bus.snoop_fanout::max_value              1                       # Request fanout histogram
system.tol3bus.snoop_fanout::total            3420449                       # Request fanout histogram
system.tol3bus.reqLayer0.occupancy         3418114500                       # Layer occupancy (ticks)
system.tol3bus.reqLayer0.utilization              0.2                       # Layer utilization (%)
system.tol3bus.respLayer0.occupancy        2566272000                       # Layer occupancy (ticks)
system.tol3bus.respLayer0.utilization             0.1                       # Layer utilization (%)

---------- End Simulation Statistics   ----------
